@<TRIPOS>MOLECULE
*****
 42 46 0 0 0
SMALL
GASTEIGER

@<TRIPOS>ATOM
      1 C         -29.9784   47.2521   -7.8730 C.3     1  UNL1        0.1333
      2 N         -28.5669   47.5645   -7.6451 N.ar    1  UNL1       -0.2950
      3 C         -27.6807   46.9343   -6.8241 C.ar    1  UNL1        0.2019
      4 N         -26.4638   47.5332   -6.7720 N.ar    1  UNL1       -0.2134
      5 C         -26.5988   48.5608   -7.6289 C.ar    1  UNL1        0.1033
      6 C         -25.6352   49.5099   -7.9613 C.ar    1  UNL1        0.0284
      7 C         -25.9780   50.5202   -8.8884 C.ar    1  UNL1        0.0922
      8 C         -27.2700   50.5120   -9.4838 C.ar    1  UNL1        0.1782
      9 C         -28.2290   49.5504   -9.1001 C.ar    1  UNL1        0.1897
     10 C         -27.8540   48.5811   -8.1658 C.ar    1  UNL1        0.1173
     11 O         -29.5020   49.5838   -9.6769 O.3     1  UNL1       -0.4669
     12 C         -29.9384   50.7147  -10.4328 C.3     1  UNL1        0.2527
     13 C         -28.7855   51.2549  -11.2864 C.3     1  UNL1        0.2526
     14 O         -27.6161   51.4306  -10.4831 O.3     1  UNL1       -0.4682
     15 C         -24.9683   51.5366   -9.2523 C.2     1  UNL1        0.2526
     16 O         -25.3207   52.7448   -9.3316 O.2     1  UNL1       -0.2697
     17 N         -23.6053   51.1577   -9.5164 N.am    1  UNL1       -0.2803
     18 H         -23.3318   50.1566   -9.3996 H       1  UNL1        0.1552
     19 C         -22.5635   52.0875   -9.8569 C.ar    1  UNL1        0.0506
     20 C         -22.4705   52.6436  -11.1434 C.ar    1  UNL1        0.0170
     21 C         -21.4323   53.5228  -11.4563 C.ar    1  UNL1        0.0309
     22 C         -20.4699   53.8473  -10.4973 C.ar    1  UNL1        0.1441
     23 F         -19.4682   54.7013  -10.8292 F       1  UNL1       -0.2042
     24 C         -20.5331   53.2846   -9.2093 C.ar    1  UNL1        0.1000
     25 C         -21.5808   52.3946   -8.9038 C.ar    1  UNL1        0.0208
     26 C         -19.4752   53.6309   -8.1888 C.3     1  UNL1        0.4207
     27 F         -19.2913   54.9989   -8.0828 F       1  UNL1       -0.1658
     28 F         -18.2723   53.0552   -8.5558 F       1  UNL1       -0.1658
     29 F         -19.8514   53.1404   -6.9516 F       1  UNL1       -0.1658
     30 N         -27.9739   45.7519   -6.0668 N.pl3   1  UNL1       -0.2815
     31 H         -28.5018   44.9905   -6.5492 H       1  UNL1        0.1551
     32 C         -27.7398   45.6280   -4.6531 C.ar    1  UNL1        0.0887
     33 C         -26.4527   45.3362   -4.1628 C.ar    1  UNL1        0.1543
     34 F         -25.4018   45.1909   -5.0089 F       1  UNL1       -0.2028
     35 C         -26.2337   45.2144   -2.7912 C.ar    1  UNL1        0.0307
     36 C         -27.2832   45.3973   -1.8926 C.ar    1  UNL1        0.0014
     37 C         -28.5683   45.7229   -2.3529 C.ar    1  UNL1        0.0189
     38 C         -28.8000   45.8290   -3.7439 C.ar    1  UNL1        0.0717
     39 CL        -30.4203   46.1632   -4.3638 Cl      1  UNL1       -0.0811
     40 C         -29.6821   45.8836   -1.3473 C.3     1  UNL1        0.1645
     41 O         -29.1540   45.9657   -0.0519 O.3     1  UNL1       -0.3772
     42 H         -28.9292   45.0391    0.2238 H       1  UNL1        0.2109
@<TRIPOS>BOND
     1     1     2    1
     2     2     3   ar
     3     3    30    1
     4    30    32    1
     5    32    33   ar
     6    33    34    1
     7    33    35   ar
     8    35    36   ar
     9    36    37   ar
    10    37    40    1
    11    40    41    1
    12    37    38   ar
    13    38    39    1
    14     3     4   ar
    15     4     5   ar
    16     5     6   ar
    17     6     7   ar
    18     7    15    1
    19    15    16    2
    20    15    17   am
    21    17    19    1
    22    19    20   ar
    23    20    21   ar
    24    21    22   ar
    25    22    23    1
    26    22    24   ar
    27    24    26    1
    28    26    27    1
    29    26    28    1
    30    26    29    1
    31    24    25   ar
    32     7     8   ar
    33     8     9   ar
    34     9    10   ar
    35     9    11    1
    36    11    12    1
    37    12    13    1
    38    13    14    1
    39    10     2   ar
    40    38    32   ar
    41    10     5   ar
    42    25    19   ar
    43    14     8    1
    44    30    31    1
    45    41    42    1
    46    17    18    1
@<TRIPOS>MOLECULE
*****
 42 46 0 0 0
SMALL
GASTEIGER

@<TRIPOS>ATOM
      1 C         -30.9931   50.1820   -8.1926 C.3     1  UNL1        0.1333
      2 N         -29.8825   50.3804   -9.1248 N.ar    1  UNL1       -0.2950
      3 C         -29.9064   50.3686  -10.4871 C.ar    1  UNL1        0.2019
      4 N         -28.6804   50.4944  -11.0557 N.ar    1  UNL1       -0.2134
      5 C         -27.8685   50.6244   -9.9914 C.ar    1  UNL1        0.1033
      6 C         -26.4857   50.7898  -10.0046 C.ar    1  UNL1        0.0284
      7 C         -25.8104   50.9057   -8.7683 C.ar    1  UNL1        0.0922
      8 C         -26.5606   50.8955   -7.5595 C.ar    1  UNL1        0.1782
      9 C         -27.9575   50.6972   -7.5856 C.ar    1  UNL1        0.1897
     10 C         -28.5825   50.5680   -8.8289 C.ar    1  UNL1        0.1173
     11 O         -28.6671   50.6595   -6.3816 O.3     1  UNL1       -0.4669
     12 C         -27.9879   50.5463   -5.1300 C.3     1  UNL1        0.2527
     13 C         -26.7100   51.3927   -5.1454 C.3     1  UNL1        0.2526
     14 O         -25.9451   51.1115   -6.3199 O.3     1  UNL1       -0.4682
     15 C         -24.3427   51.0808   -8.7628 C.2     1  UNL1        0.2526
     16 O         -23.6753   50.6027   -7.8056 O.2     1  UNL1       -0.2697
     17 N         -23.6824   51.7878   -9.8283 N.am    1  UNL1       -0.2803
     18 H         -24.2548   52.1339  -10.6304 H       1  UNL1        0.1552
     19 C         -22.2604   51.9830   -9.9039 C.ar    1  UNL1        0.0506
     20 C         -21.5408   51.6784  -11.0712 C.ar    1  UNL1        0.0170
     21 C         -20.1561   51.8508  -11.1090 C.ar    1  UNL1        0.0309
     22 C         -19.4723   52.3153   -9.9829 C.ar    1  UNL1        0.1441
     23 F         -18.1250   52.4696  -10.0452 F       1  UNL1       -0.2042
     24 C         -20.1718   52.6061   -8.7973 C.ar    1  UNL1        0.1000
     25 C         -21.5679   52.4243   -8.7663 C.ar    1  UNL1        0.0208
     26 C         -19.4165   53.0902   -7.5826 C.3     1  UNL1        0.4207
     27 F         -18.6750   54.2265   -7.8574 F       1  UNL1       -0.1658
     28 F         -18.5541   52.0996   -7.1488 F       1  UNL1       -0.1658
     29 F         -20.3124   53.3836   -6.5706 F       1  UNL1       -0.1658
     30 N         -31.0953   50.2316  -11.2777 N.pl3   1  UNL1       -0.2815
     31 H         -32.0057   50.4640  -10.8213 H       1  UNL1        0.1551
     32 C         -31.1223   49.6354  -12.5863 C.ar    1  UNL1        0.0887
     33 C         -31.3794   50.4206  -13.7264 C.ar    1  UNL1        0.1543
     34 F         -31.5815   51.7582  -13.6193 F       1  UNL1       -0.2028
     35 C         -31.4072   49.8353  -14.9915 C.ar    1  UNL1        0.0307
     36 C         -31.1639   48.4712  -15.1408 C.ar    1  UNL1        0.0014
     37 C         -30.8711   47.6722  -14.0249 C.ar    1  UNL1        0.0189
     38 C         -30.8603   48.2571  -12.7374 C.ar    1  UNL1        0.0717
     39 CL        -30.5700   47.2689  -11.3019 Cl      1  UNL1       -0.0811
     40 C         -30.6427   46.1943  -14.2281 C.3     1  UNL1        0.1645
     41 O         -29.3396   45.8506  -13.8441 O.3     1  UNL1       -0.3772
     42 H         -28.7411   46.1277  -14.5859 H       1  UNL1        0.2109
@<TRIPOS>BOND
     1     1     2    1
     2     2     3   ar
     3     3    30    1
     4    30    32    1
     5    32    33   ar
     6    33    34    1
     7    33    35   ar
     8    35    36   ar
     9    36    37   ar
    10    37    40    1
    11    40    41    1
    12    37    38   ar
    13    38    39    1
    14     3     4   ar
    15     4     5   ar
    16     5     6   ar
    17     6     7   ar
    18     7    15    1
    19    15    16    2
    20    15    17   am
    21    17    19    1
    22    19    20   ar
    23    20    21   ar
    24    21    22   ar
    25    22    23    1
    26    22    24   ar
    27    24    26    1
    28    26    27    1
    29    26    28    1
    30    26    29    1
    31    24    25   ar
    32     7     8   ar
    33     8     9   ar
    34     9    10   ar
    35     9    11    1
    36    11    12    1
    37    12    13    1
    38    13    14    1
    39    10     2   ar
    40    38    32   ar
    41    10     5   ar
    42    25    19   ar
    43    14     8    1
    44    30    31    1
    45    41    42    1
    46    17    18    1
@<TRIPOS>MOLECULE
*****
 42 46 0 0 0
SMALL
GASTEIGER

@<TRIPOS>ATOM
      1 C         -30.6577   49.0101   -7.2572 C.3     1  UNL1        0.1333
      2 N         -29.2408   49.2234   -6.9597 N.ar    1  UNL1       -0.2950
      3 C         -28.5339   48.8212   -5.8665 C.ar    1  UNL1        0.2019
      4 N         -27.2503   49.2624   -5.8538 N.ar    1  UNL1       -0.2134
      5 C         -27.1548   49.9392   -7.0121 C.ar    1  UNL1        0.1033
      6 C         -26.0348   50.6021   -7.5080 C.ar    1  UNL1        0.0284
      7 C         -26.1404   51.2616   -8.7538 C.ar    1  UNL1        0.0922
      8 C         -27.3622   51.1916   -9.4791 C.ar    1  UNL1        0.1782
      9 C         -28.4839   50.5344   -8.9305 C.ar    1  UNL1        0.1897
     10 C         -28.3412   49.9120   -7.6874 C.ar    1  UNL1        0.1173
     11 O         -29.6824   50.5075   -9.6498 O.3     1  UNL1       -0.4669
     12 C         -29.8772   51.3489  -10.7877 C.3     1  UNL1        0.2527
     13 C         -28.5864   51.4298  -11.6105 C.3     1  UNL1        0.2526
     14 O         -27.4785   51.7411  -10.7624 O.3     1  UNL1       -0.4682
     15 C         -24.9622   51.9712   -9.2953 C.2     1  UNL1        0.2526
     16 O         -25.1310   53.0771   -9.8771 O.2     1  UNL1       -0.2697
     17 N         -23.6429   51.4110   -9.1664 N.am    1  UNL1       -0.2803
     18 H         -23.5275   50.5161   -8.6406 H       1  UNL1        0.1552
     19 C         -22.4481   52.0477   -9.6489 C.ar    1  UNL1        0.0506
     20 C         -22.1966   52.1861  -11.0239 C.ar    1  UNL1        0.0170
     21 C         -21.0150   52.7835  -11.4662 C.ar    1  UNL1        0.0309
     22 C         -20.0667   53.2371  -10.5463 C.ar    1  UNL1        0.1441
     23 F         -18.9241   53.8100  -11.0034 F       1  UNL1       -0.2042
     24 C         -20.2900   53.0888   -9.1650 C.ar    1  UNL1        0.1000
     25 C         -21.4823   52.4804   -8.7277 C.ar    1  UNL1        0.0208
     26 C         -19.2475   53.5678   -8.1830 C.3     1  UNL1        0.4207
     27 F         -18.0250   52.9521   -8.3899 F       1  UNL1       -0.1658
     28 F         -19.6643   53.2901   -6.8937 F       1  UNL1       -0.1658
     29 F         -19.0807   54.9340   -8.3191 F       1  UNL1       -0.1658
     30 N         -29.0655   48.0133   -4.8073 N.pl3   1  UNL1       -0.2815
     31 H         -29.7477   48.4622   -4.1560 H       1  UNL1        0.1551
     32 C         -28.5887   46.6938   -4.4903 C.ar    1  UNL1        0.0887
     33 C         -29.1786   45.5584   -5.0777 C.ar    1  UNL1        0.1543
     34 F         -30.1904   45.6841   -5.9732 F       1  UNL1       -0.2028
     35 C         -28.7133   44.2822   -4.7634 C.ar    1  UNL1        0.0307
     36 C         -27.6491   44.1200   -3.8781 C.ar    1  UNL1        0.0014
     37 C         -27.0209   45.2364   -3.3052 C.ar    1  UNL1        0.0189
     38 C         -27.5010   46.5321   -3.6060 C.ar    1  UNL1        0.0717
     39 CL        -26.7842   47.9569   -2.8459 Cl      1  UNL1       -0.0811
     40 C         -25.8912   45.0144   -2.3294 C.3     1  UNL1        0.1645
     41 O         -26.3916   44.9330   -1.0230 O.3     1  UNL1       -0.3772
     42 H         -26.5716   45.8635   -0.7280 H       1  UNL1        0.2109
@<TRIPOS>BOND
     1     1     2    1
     2     2     3   ar
     3     3    30    1
     4    30    32    1
     5    32    33   ar
     6    33    34    1
     7    33    35   ar
     8    35    36   ar
     9    36    37   ar
    10    37    40    1
    11    40    41    1
    12    37    38   ar
    13    38    39    1
    14     3     4   ar
    15     4     5   ar
    16     5     6   ar
    17     6     7   ar
    18     7    15    1
    19    15    16    2
    20    15    17   am
    21    17    19    1
    22    19    20   ar
    23    20    21   ar
    24    21    22   ar
    25    22    23    1
    26    22    24   ar
    27    24    26    1
    28    26    27    1
    29    26    28    1
    30    26    29    1
    31    24    25   ar
    32     7     8   ar
    33     8     9   ar
    34     9    10   ar
    35     9    11    1
    36    11    12    1
    37    12    13    1
    38    13    14    1
    39    10     2   ar
    40    38    32   ar
    41    10     5   ar
    42    25    19   ar
    43    14     8    1
    44    30    31    1
    45    41    42    1
    46    17    18    1
@<TRIPOS>MOLECULE
*****
 42 46 0 0 0
SMALL
GASTEIGER

@<TRIPOS>ATOM
      1 C         -31.2814   50.2608   -7.3011 C.3     1  UNL1        0.1333
      2 N         -29.8944   50.4529   -6.8755 N.ar    1  UNL1       -0.2950
      3 C         -29.3625   50.3114   -5.6291 C.ar    1  UNL1        0.2019
      4 N         -28.0517   50.6555   -5.5527 N.ar    1  UNL1       -0.2134
      5 C         -27.7559   50.9916   -6.8209 C.ar    1  UNL1        0.1033
      6 C         -26.5258   51.4240   -7.3104 C.ar    1  UNL1        0.0284
      7 C         -26.4203   51.7332   -8.6856 C.ar    1  UNL1        0.0922
      8 C         -27.5506   51.5522   -9.5304 C.ar    1  UNL1        0.1782
      9 C         -28.7880   51.1394   -8.9921 C.ar    1  UNL1        0.1897
     10 C         -28.8527   50.8627   -7.6237 C.ar    1  UNL1        0.1173
     11 O         -29.8916   50.9999   -9.8388 O.3     1  UNL1       -0.4669
     12 C         -29.8687   51.5186  -11.1697 C.3     1  UNL1        0.2527
     13 C         -28.4896   51.2931  -11.7996 C.3     1  UNL1        0.2526
     14 O         -27.4622   51.7464  -10.9149 O.3     1  UNL1       -0.4682
     15 C         -25.1228   52.1946   -9.2228 C.2     1  UNL1        0.2526
     16 O         -25.0831   53.2696   -9.8808 O.2     1  UNL1       -0.2697
     17 N         -23.9229   51.4309   -9.0040 N.am    1  UNL1       -0.2803
     18 H         -23.9775   50.5685   -8.4176 H       1  UNL1        0.1552
     19 C         -22.6231   51.8220   -9.4769 C.ar    1  UNL1        0.0506
     20 C         -22.2506   51.6496  -10.8203 C.ar    1  UNL1        0.0170
     21 C         -20.9721   52.0120  -11.2477 C.ar    1  UNL1        0.0309
     22 C         -20.0479   52.5371  -10.3413 C.ar    1  UNL1        0.1441
     23 F         -18.8098   52.8770  -10.7824 F       1  UNL1       -0.2042
     24 C         -20.3942   52.6980   -8.9872 C.ar    1  UNL1        0.1000
     25 C         -21.6844   52.3249   -8.5635 C.ar    1  UNL1        0.0208
     26 C         -19.3784   53.2500   -8.0156 C.3     1  UNL1        0.4207
     27 F         -19.0106   54.5453   -8.3370 F       1  UNL1       -0.1658
     28 F         -18.2452   52.4571   -8.0307 F       1  UNL1       -0.1658
     29 F         -19.9135   53.2483   -6.7402 F       1  UNL1       -0.1658
     30 N         -30.0908   49.8512   -4.4823 N.pl3   1  UNL1       -0.2815
     31 H         -30.9025   50.4272   -4.1652 H       1  UNL1        0.1551
     32 C         -29.6684   48.7549   -3.6526 C.ar    1  UNL1        0.0887
     33 C         -28.8197   47.7547   -4.1641 C.ar    1  UNL1        0.1543
     34 F         -28.3617   47.8158   -5.4400 F       1  UNL1       -0.2028
     35 C         -28.4167   46.6932   -3.3549 C.ar    1  UNL1        0.0307
     36 C         -28.8366   46.6217   -2.0279 C.ar    1  UNL1        0.0014
     37 C         -29.6546   47.6234   -1.4833 C.ar    1  UNL1        0.0189
     38 C         -30.0816   48.6923   -2.3048 C.ar    1  UNL1        0.0717
     39 CL        -31.1723   49.9316   -1.6755 Cl      1  UNL1       -0.0811
     40 C         -30.1097   47.4918   -0.0504 C.3     1  UNL1        0.1645
     41 O         -29.5029   46.3794    0.5479 O.3     1  UNL1       -0.3772
     42 H         -29.9984   45.5796    0.2319 H       1  UNL1        0.2109
@<TRIPOS>BOND
     1     1     2    1
     2     2     3   ar
     3     3    30    1
     4    30    32    1
     5    32    33   ar
     6    33    34    1
     7    33    35   ar
     8    35    36   ar
     9    36    37   ar
    10    37    40    1
    11    40    41    1
    12    37    38   ar
    13    38    39    1
    14     3     4   ar
    15     4     5   ar
    16     5     6   ar
    17     6     7   ar
    18     7    15    1
    19    15    16    2
    20    15    17   am
    21    17    19    1
    22    19    20   ar
    23    20    21   ar
    24    21    22   ar
    25    22    23    1
    26    22    24   ar
    27    24    26    1
    28    26    27    1
    29    26    28    1
    30    26    29    1
    31    24    25   ar
    32     7     8   ar
    33     8     9   ar
    34     9    10   ar
    35     9    11    1
    36    11    12    1
    37    12    13    1
    38    13    14    1
    39    10     2   ar
    40    38    32   ar
    41    10     5   ar
    42    25    19   ar
    43    14     8    1
    44    30    31    1
    45    41    42    1
    46    17    18    1
@<TRIPOS>MOLECULE
*****
 42 46 0 0 0
SMALL
GASTEIGER

@<TRIPOS>ATOM
      1 C         -22.5767   53.0712  -12.0708 C.3     1  UNL1        0.1333
      2 N         -22.5758   52.5658  -10.6974 N.ar    1  UNL1       -0.2950
      3 C         -21.5930   52.6629   -9.7586 C.ar    1  UNL1        0.2019
      4 N         -21.8723   52.0035   -8.6056 N.ar    1  UNL1       -0.2134
      5 C         -23.1008   51.5064   -8.8350 C.ar    1  UNL1        0.1033
      6 C         -23.8722   50.7386   -7.9659 C.ar    1  UNL1        0.0284
      7 C         -25.1465   50.3077   -8.4001 C.ar    1  UNL1        0.0922
      8 C         -25.6182   50.7047   -9.6822 C.ar    1  UNL1        0.1782
      9 C         -24.7956   51.4592  -10.5456 C.ar    1  UNL1        0.1897
     10 C         -23.5353   51.8479  -10.0835 C.ar    1  UNL1        0.1173
     11 O         -25.2709   51.8093  -11.8128 O.3     1  UNL1       -0.4669
     12 C         -26.4452   51.2008  -12.3528 C.3     1  UNL1        0.2527
     13 C         -27.4975   51.0185  -11.2531 C.3     1  UNL1        0.2526
     14 O         -26.9139   50.3883  -10.1104 O.3     1  UNL1       -0.4682
     15 C         -25.9789   49.4911   -7.4916 C.2     1  UNL1        0.2526
     16 O         -26.9451   50.0379   -6.8937 O.2     1  UNL1       -0.2697
     17 N         -25.6926   48.0957   -7.2869 N.am    1  UNL1       -0.2803
     18 H         -24.9144   47.6589   -7.8293 H       1  UNL1        0.1552
     19 C         -26.4652   47.2325   -6.4360 C.ar    1  UNL1        0.0506
     20 C         -27.7750   46.8537   -6.7732 C.ar    1  UNL1        0.0170
     21 C         -28.5138   46.0370   -5.9155 C.ar    1  UNL1        0.0309
     22 C         -27.9623   45.5999   -4.7088 C.ar    1  UNL1        0.1441
     23 F         -28.7041   44.8103   -3.8908 F       1  UNL1       -0.2042
     24 C         -26.6596   45.9854   -4.3427 C.ar    1  UNL1        0.1000
     25 C         -25.9233   46.8138   -5.2115 C.ar    1  UNL1        0.0208
     26 C         -26.0836   45.5198   -3.0267 C.3     1  UNL1        0.4207
     27 F         -24.8026   46.0050   -2.8258 F       1  UNL1       -0.1658
     28 F         -26.0360   44.1376   -3.0057 F       1  UNL1       -0.1658
     29 F         -26.8880   45.9595   -1.9911 F       1  UNL1       -0.1658
     30 N         -20.3643   53.3804   -9.9399 N.pl3   1  UNL1       -0.2815
     31 H         -20.4307   54.3961  -10.1747 H       1  UNL1        0.1551
     32 C         -19.0708   52.7534   -9.9887 C.ar    1  UNL1        0.0887
     33 C         -18.4757   52.4333  -11.2239 C.ar    1  UNL1        0.1543
     34 F         -19.0960   52.7314  -12.3935 F       1  UNL1       -0.2028
     35 C         -17.2229   51.8228  -11.2636 C.ar    1  UNL1        0.0307
     36 C         -16.5410   51.5395  -10.0816 C.ar    1  UNL1        0.0014
     37 C         -17.0961   51.8793   -8.8384 C.ar    1  UNL1        0.0189
     38 C         -18.3748   52.4815   -8.7917 C.ar    1  UNL1        0.0717
     39 CL        -19.1381   52.8551   -7.2427 Cl      1  UNL1       -0.0811
     40 C         -16.3369   51.5283   -7.5822 C.3     1  UNL1        0.1645
     41 O         -15.1493   52.2689   -7.5138 O.3     1  UNL1       -0.3772
     42 H         -14.5028   51.8286   -8.1248 H       1  UNL1        0.2109
@<TRIPOS>BOND
     1     1     2    1
     2     2     3   ar
     3     3    30    1
     4    30    32    1
     5    32    33   ar
     6    33    34    1
     7    33    35   ar
     8    35    36   ar
     9    36    37   ar
    10    37    40    1
    11    40    41    1
    12    37    38   ar
    13    38    39    1
    14     3     4   ar
    15     4     5   ar
    16     5     6   ar
    17     6     7   ar
    18     7    15    1
    19    15    16    2
    20    15    17   am
    21    17    19    1
    22    19    20   ar
    23    20    21   ar
    24    21    22   ar
    25    22    23    1
    26    22    24   ar
    27    24    26    1
    28    26    27    1
    29    26    28    1
    30    26    29    1
    31    24    25   ar
    32     7     8   ar
    33     8     9   ar
    34     9    10   ar
    35     9    11    1
    36    11    12    1
    37    12    13    1
    38    13    14    1
    39    10     2   ar
    40    38    32   ar
    41    10     5   ar
    42    25    19   ar
    43    14     8    1
    44    30    31    1
    45    41    42    1
    46    17    18    1
@<TRIPOS>MOLECULE
*****
 42 46 0 0 0
SMALL
GASTEIGER

@<TRIPOS>ATOM
      1 C         -23.4097   52.9575  -11.5618 C.3     1  UNL1        0.1333
      2 N         -23.2673   52.3351  -10.2450 N.ar    1  UNL1       -0.2950
      3 C         -22.1817   52.3314   -9.4217 C.ar    1  UNL1        0.2019
      4 N         -22.3471   51.5802   -8.3034 N.ar    1  UNL1       -0.2134
      5 C         -23.6077   51.1287   -8.4297 C.ar    1  UNL1        0.1033
      6 C         -24.2974   50.3037   -7.5445 C.ar    1  UNL1        0.0284
      7 C         -25.6248   49.9368   -7.8627 C.ar    1  UNL1        0.0922
      8 C         -26.2276   50.4524   -9.0436 C.ar    1  UNL1        0.1782
      9 C         -25.4869   51.2628   -9.9302 C.ar    1  UNL1        0.1897
     10 C         -24.1713   51.5855   -9.5864 C.ar    1  UNL1        0.1173
     11 O         -26.0929   51.7305  -11.1000 O.3     1  UNL1       -0.4669
     12 C         -27.3383   51.1939  -11.5493 C.3     1  UNL1        0.2527
     13 C         -28.2634   50.9375  -10.3543 C.3     1  UNL1        0.2526
     14 O         -27.5722   50.1995   -9.3438 O.3     1  UNL1       -0.4682
     15 C         -26.3719   49.0609   -6.9355 C.2     1  UNL1        0.2526
     16 O         -26.9987   48.0717   -7.4032 O.2     1  UNL1       -0.2697
     17 N         -26.3896   49.3310   -5.5221 N.am    1  UNL1       -0.2803
     18 H         -25.8251   50.1305   -5.1574 H       1  UNL1        0.1552
     19 C         -27.0757   48.5173   -4.5562 C.ar    1  UNL1        0.0506
     20 C         -28.2521   48.9603   -3.9294 C.ar    1  UNL1        0.0170
     21 C         -28.8835   48.1621   -2.9740 C.ar    1  UNL1        0.0309
     22 C         -28.3446   46.9219   -2.6235 C.ar    1  UNL1        0.1441
     23 F         -28.9762   46.1677   -1.6881 F       1  UNL1       -0.2042
     24 C         -27.1556   46.4692   -3.2242 C.ar    1  UNL1        0.1000
     25 C         -26.5223   47.2831   -4.1832 C.ar    1  UNL1        0.0208
     26 C         -26.5753   45.1343   -2.8219 C.3     1  UNL1        0.4207
     27 F         -26.4666   45.0144   -1.4470 F       1  UNL1       -0.1658
     28 F         -25.3152   44.9923   -3.3742 F       1  UNL1       -0.1658
     29 F         -27.3899   44.1190   -3.2890 F       1  UNL1       -0.1658
     30 N         -20.9612   53.0379   -9.6833 N.pl3   1  UNL1       -0.2815
     31 H         -20.9904   53.8005  -10.3966 H       1  UNL1        0.1551
     32 C         -19.6811   52.6472   -9.1564 C.ar    1  UNL1        0.0887
     33 C         -19.3929   52.8008   -7.7869 C.ar    1  UNL1        0.1543
     34 F         -20.3224   53.2955   -6.9310 F       1  UNL1       -0.2028
     35 C         -18.1488   52.4228   -7.2836 C.ar    1  UNL1        0.0307
     36 C         -17.1857   51.8738   -8.1283 C.ar    1  UNL1        0.0014
     37 C         -17.4595   51.6781   -9.4906 C.ar    1  UNL1        0.0189
     38 C         -18.7129   52.0771  -10.0100 C.ar    1  UNL1        0.0717
     39 CL        -19.0660   51.9156  -11.7336 Cl      1  UNL1       -0.0811
     40 C         -16.3781   51.1076  -10.3753 C.3     1  UNL1        0.1645
     41 O         -15.7456   52.1354  -11.0874 O.3     1  UNL1       -0.3772
     42 H         -16.3478   52.3741  -11.8394 H       1  UNL1        0.2109
@<TRIPOS>BOND
     1     1     2    1
     2     2     3   ar
     3     3    30    1
     4    30    32    1
     5    32    33   ar
     6    33    34    1
     7    33    35   ar
     8    35    36   ar
     9    36    37   ar
    10    37    40    1
    11    40    41    1
    12    37    38   ar
    13    38    39    1
    14     3     4   ar
    15     4     5   ar
    16     5     6   ar
    17     6     7   ar
    18     7    15    1
    19    15    16    2
    20    15    17   am
    21    17    19    1
    22    19    20   ar
    23    20    21   ar
    24    21    22   ar
    25    22    23    1
    26    22    24   ar
    27    24    26    1
    28    26    27    1
    29    26    28    1
    30    26    29    1
    31    24    25   ar
    32     7     8   ar
    33     8     9   ar
    34     9    10   ar
    35     9    11    1
    36    11    12    1
    37    12    13    1
    38    13    14    1
    39    10     2   ar
    40    38    32   ar
    41    10     5   ar
    42    25    19   ar
    43    14     8    1
    44    30    31    1
    45    41    42    1
    46    17    18    1
@<TRIPOS>MOLECULE
*****
 42 46 0 0 0
SMALL
GASTEIGER

@<TRIPOS>ATOM
      1 C         -23.4589   52.7734  -11.7487 C.3     1  UNL1        0.1333
      2 N         -23.2964   52.2763  -10.3818 N.ar    1  UNL1       -0.2950
      3 C         -22.1832   52.3028   -9.5965 C.ar    1  UNL1        0.2019
      4 N         -22.3407   51.6724   -8.4049 N.ar    1  UNL1       -0.2134
      5 C         -23.6231   51.2694   -8.4464 C.ar    1  UNL1        0.1033
      6 C         -24.3154   50.5671   -7.4629 C.ar    1  UNL1        0.0284
      7 C         -25.6678   50.2325   -7.7015 C.ar    1  UNL1        0.0922
      8 C         -26.2897   50.6579   -8.9082 C.ar    1  UNL1        0.1782
      9 C         -25.5471   51.3431   -9.8933 C.ar    1  UNL1        0.1897
     10 C         -24.2075   51.6368   -9.6244 C.ar    1  UNL1        0.1173
     11 O         -26.1739   51.7221  -11.0841 O.3     1  UNL1       -0.4669
     12 C         -27.4563   51.2023  -11.4389 C.3     1  UNL1        0.2527
     13 C         -28.3484   51.1063  -10.1961 C.3     1  UNL1        0.2526
     14 O         -27.6538   50.4392   -9.1397 O.3     1  UNL1       -0.4682
     15 C         -26.4181   49.4864   -6.6694 C.2     1  UNL1        0.2526
     16 O         -26.8378   48.3282   -6.9387 O.2     1  UNL1       -0.2697
     17 N         -26.6712   50.0698   -5.3784 N.am    1  UNL1       -0.2803
     18 H         -26.2734   51.0121   -5.1674 H       1  UNL1        0.1552
     19 C         -27.3753   49.4021   -4.3181 C.ar    1  UNL1        0.0506
     20 C         -26.6901   48.6977   -3.3144 C.ar    1  UNL1        0.0170
     21 C         -27.3992   48.0343   -2.3116 C.ar    1  UNL1        0.0309
     22 C         -28.7959   48.0542   -2.3042 C.ar    1  UNL1        0.1441
     23 F         -29.4609   47.3970   -1.3201 F       1  UNL1       -0.2042
     24 C         -29.5015   48.7364   -3.3124 C.ar    1  UNL1        0.1000
     25 C         -28.7784   49.3985   -4.3232 C.ar    1  UNL1        0.0208
     26 C         -31.0116   48.7339   -3.3013 C.3     1  UNL1        0.4207
     27 F         -31.5182   49.2905   -2.1394 F       1  UNL1       -0.1658
     28 F         -31.4729   47.4337   -3.4006 F       1  UNL1       -0.1658
     29 F         -31.4807   49.4628   -4.3791 F       1  UNL1       -0.1658
     30 N         -20.9437   52.9235   -9.9649 N.pl3   1  UNL1       -0.2815
     31 H         -20.9486   53.5477  -10.8025 H       1  UNL1        0.1551
     32 C         -19.6778   52.6036   -9.3617 C.ar    1  UNL1        0.0887
     33 C         -19.4625   52.8240   -7.9878 C.ar    1  UNL1        0.1543
     34 F         -20.4500   53.3179   -7.1989 F       1  UNL1       -0.2028
     35 C         -18.2318   52.5145   -7.4105 C.ar    1  UNL1        0.0307
     36 C         -17.2095   51.9682   -8.1844 C.ar    1  UNL1        0.0014
     37 C         -17.4091   51.7065   -9.5485 C.ar    1  UNL1        0.0189
     38 C         -18.6491   52.0360  -10.1432 C.ar    1  UNL1        0.0717
     39 CL        -18.9115   51.7907  -11.8731 Cl      1  UNL1       -0.0811
     40 C         -16.2660   51.1415  -10.3558 C.3     1  UNL1        0.1645
     41 O         -15.7158   52.1369  -11.1745 O.3     1  UNL1       -0.3772
     42 H         -16.3240   52.2346  -11.9528 H       1  UNL1        0.2109
@<TRIPOS>BOND
     1     1     2    1
     2     2     3   ar
     3     3    30    1
     4    30    32    1
     5    32    33   ar
     6    33    34    1
     7    33    35   ar
     8    35    36   ar
     9    36    37   ar
    10    37    40    1
    11    40    41    1
    12    37    38   ar
    13    38    39    1
    14     3     4   ar
    15     4     5   ar
    16     5     6   ar
    17     6     7   ar
    18     7    15    1
    19    15    16    2
    20    15    17   am
    21    17    19    1
    22    19    20   ar
    23    20    21   ar
    24    21    22   ar
    25    22    23    1
    26    22    24   ar
    27    24    26    1
    28    26    27    1
    29    26    28    1
    30    26    29    1
    31    24    25   ar
    32     7     8   ar
    33     8     9   ar
    34     9    10   ar
    35     9    11    1
    36    11    12    1
    37    12    13    1
    38    13    14    1
    39    10     2   ar
    40    38    32   ar
    41    10     5   ar
    42    25    19   ar
    43    14     8    1
    44    30    31    1
    45    41    42    1
    46    17    18    1
@<TRIPOS>MOLECULE
*****
 42 46 0 0 0
SMALL
GASTEIGER

@<TRIPOS>ATOM
      1 C         -30.7183   51.0204  -10.6044 C.3     1  UNL1        0.1333
      2 N         -29.6919   50.9372   -9.5644 N.ar    1  UNL1       -0.2950
      3 C         -29.8557   50.7570   -8.2238 C.ar    1  UNL1        0.2019
      4 N         -28.6973   50.8184   -7.5192 N.ar    1  UNL1       -0.2134
      5 C         -27.7737   51.0112   -8.4776 C.ar    1  UNL1        0.1033
      6 C         -26.3981   51.1437   -8.3044 C.ar    1  UNL1        0.0284
      7 C         -25.5925   51.3447   -9.4483 C.ar    1  UNL1        0.0922
      8 C         -26.1989   51.3603  -10.7351 C.ar    1  UNL1        0.1782
      9 C         -27.5996   51.2512  -10.8678 C.ar    1  UNL1        0.1897
     10 C         -28.3602   51.0729   -9.7090 C.ar    1  UNL1        0.1173
     11 O         -28.1735   51.3015  -12.1416 O.3     1  UNL1       -0.4669
     12 C         -27.4147   51.7270  -13.2747 C.3     1  UNL1        0.2527
     13 C         -25.9860   51.1780  -13.1886 C.3     1  UNL1        0.2526
     14 O         -25.4282   51.4521  -11.9012 O.3     1  UNL1       -0.4682
     15 C         -24.1306   51.4884   -9.2836 C.2     1  UNL1        0.2526
     16 O         -23.6007   51.1242   -8.1989 O.2     1  UNL1       -0.2697
     17 N         -23.3221   52.0381  -10.3397 N.am    1  UNL1       -0.2803
     18 H         -23.7811   52.2895  -11.2434 H       1  UNL1        0.1552
     19 C         -21.8951   52.1923  -10.2630 C.ar    1  UNL1        0.0506
     20 C         -21.0627   51.8486  -11.3409 C.ar    1  UNL1        0.0170
     21 C         -19.6776   51.9817  -11.2303 C.ar    1  UNL1        0.0309
     22 C         -19.1062   52.4453  -10.0430 C.ar    1  UNL1        0.1441
     23 F         -17.7561   52.5609   -9.9605 F       1  UNL1       -0.2042
     24 C         -19.9210   52.7749   -8.9443 C.ar    1  UNL1        0.1000
     25 C         -21.3170   52.6327   -9.0628 C.ar    1  UNL1        0.0208
     26 C         -19.2876   53.2576   -7.6612 C.3     1  UNL1        0.4207
     27 F         -20.1990   53.2937   -6.6198 F       1  UNL1       -0.1658
     28 F         -18.7833   54.5324   -7.8453 F       1  UNL1       -0.1658
     29 F         -18.2531   52.4091   -7.3113 F       1  UNL1       -0.1658
     30 N         -31.1184   50.5281   -7.5831 N.pl3   1  UNL1       -0.2815
     31 H         -31.9408   51.0680   -7.9344 H       1  UNL1        0.1551
     32 C         -31.2798   49.7413   -6.3899 C.ar    1  UNL1        0.0887
     33 C         -31.3639   48.3378   -6.4631 C.ar    1  UNL1        0.1543
     34 F         -31.2690   47.6958   -7.6548 F       1  UNL1       -0.2028
     35 C         -31.5234   47.5816   -5.3026 C.ar    1  UNL1        0.0307
     36 C         -31.5840   48.2069   -4.0586 C.ar    1  UNL1        0.0014
     37 C         -31.4683   49.6016   -3.9545 C.ar    1  UNL1        0.0189
     38 C         -31.3252   50.3747   -5.1299 C.ar    1  UNL1        0.0717
     39 CL        -31.2518   52.1380   -5.0443 Cl      1  UNL1       -0.0811
     40 C         -31.5684   50.2401   -2.5907 C.3     1  UNL1        0.1645
     41 O         -30.9118   49.4489   -1.6386 O.3     1  UNL1       -0.3772
     42 H         -31.5231   48.6977   -1.4213 H       1  UNL1        0.2109
@<TRIPOS>BOND
     1     1     2    1
     2     2     3   ar
     3     3    30    1
     4    30    32    1
     5    32    33   ar
     6    33    34    1
     7    33    35   ar
     8    35    36   ar
     9    36    37   ar
    10    37    40    1
    11    40    41    1
    12    37    38   ar
    13    38    39    1
    14     3     4   ar
    15     4     5   ar
    16     5     6   ar
    17     6     7   ar
    18     7    15    1
    19    15    16    2
    20    15    17   am
    21    17    19    1
    22    19    20   ar
    23    20    21   ar
    24    21    22   ar
    25    22    23    1
    26    22    24   ar
    27    24    26    1
    28    26    27    1
    29    26    28    1
    30    26    29    1
    31    24    25   ar
    32     7     8   ar
    33     8     9   ar
    34     9    10   ar
    35     9    11    1
    36    11    12    1
    37    12    13    1
    38    13    14    1
    39    10     2   ar
    40    38    32   ar
    41    10     5   ar
    42    25    19   ar
    43    14     8    1
    44    30    31    1
    45    41    42    1
    46    17    18    1
@<TRIPOS>MOLECULE
*****
 42 46 0 0 0
SMALL
GASTEIGER

@<TRIPOS>ATOM
      1 C         -24.1071   51.8478  -11.5508 C.3     1  UNL1        0.1333
      2 N         -23.9636   51.5648  -10.1221 N.ar    1  UNL1       -0.2950
      3 C         -22.8314   51.5799   -9.3641 C.ar    1  UNL1        0.2019
      4 N         -23.0271   51.1779   -8.0826 N.ar    1  UNL1       -0.2134
      5 C         -24.3497   50.9373   -8.0428 C.ar    1  UNL1        0.1033
      6 C         -25.0912   50.4978   -6.9488 C.ar    1  UNL1        0.0284
      7 C         -26.4811   50.3007   -7.1139 C.ar    1  UNL1        0.0922
      8 C         -27.0840   50.5973   -8.3679 C.ar    1  UNL1        0.1782
      9 C         -26.2948   51.0135   -9.4611 C.ar    1  UNL1        0.1897
     10 C         -24.9216   51.1771   -9.2591 C.ar    1  UNL1        0.1173
     11 O         -26.9077   51.2678  -10.6916 O.3     1  UNL1       -0.4669
     12 C         -28.2543   50.8617  -10.9413 C.3     1  UNL1        0.2527
     13 C         -29.1121   51.0830   -9.6903 C.3     1  UNL1        0.2526
     14 O         -28.4712   50.5162   -8.5451 O.3     1  UNL1       -0.4682
     15 C         -27.2840   49.8336   -5.9641 C.2     1  UNL1        0.2526
     16 O         -27.1082   50.3738   -4.8383 O.2     1  UNL1       -0.2697
     17 N         -28.2489   48.7775   -6.1214 N.am    1  UNL1       -0.2803
     18 H         -28.4054   48.3794   -7.0741 H       1  UNL1        0.1552
     19 C         -29.0793   48.2818   -5.0582 C.ar    1  UNL1        0.0506
     20 C         -30.2661   48.9369   -4.6903 C.ar    1  UNL1        0.0170
     21 C         -31.0401   48.4504   -3.6354 C.ar    1  UNL1        0.0309
     22 C         -30.6351   47.3159   -2.9281 C.ar    1  UNL1        0.1441
     23 F         -31.4040   46.8666   -1.9036 F       1  UNL1       -0.2042
     24 C         -29.4388   46.6575   -3.2672 C.ar    1  UNL1        0.1000
     25 C         -28.6614   47.1581   -4.3293 C.ar    1  UNL1        0.0208
     26 C         -29.0048   45.4429   -2.4818 C.3     1  UNL1        0.4207
     27 F         -27.7716   44.9734   -2.9007 F       1  UNL1       -0.1658
     28 F         -29.9349   44.4317   -2.6419 F       1  UNL1       -0.1658
     29 F         -28.9189   45.7689   -1.1405 F       1  UNL1       -0.1658
     30 N         -21.5377   51.9717   -9.8438 N.pl3   1  UNL1       -0.2815
     31 H         -21.1218   51.4092  -10.6196 H       1  UNL1        0.1551
     32 C         -20.7177   52.9697   -9.2111 C.ar    1  UNL1        0.0887
     33 C         -19.7526   52.6027   -8.2539 C.ar    1  UNL1        0.1543
     34 F         -19.5572   51.3005   -7.9263 F       1  UNL1       -0.2028
     35 C         -18.9634   53.5759   -7.6423 C.ar    1  UNL1        0.0307
     36 C         -19.1109   54.9186   -7.9855 C.ar    1  UNL1        0.0014
     37 C         -20.0413   55.3078   -8.9613 C.ar    1  UNL1        0.0189
     38 C         -20.8574   54.3270   -9.5710 C.ar    1  UNL1        0.0717
     39 CL        -22.0912   54.7876  -10.7488 Cl      1  UNL1       -0.0811
     40 C         -20.1888   56.7752   -9.2816 C.3     1  UNL1        0.1645
     41 O         -19.9585   57.5448   -8.1334 O.3     1  UNL1       -0.3772
     42 H         -20.7860   57.4975   -7.5874 H       1  UNL1        0.2109
@<TRIPOS>BOND
     1     1     2    1
     2     2     3   ar
     3     3    30    1
     4    30    32    1
     5    32    33   ar
     6    33    34    1
     7    33    35   ar
     8    35    36   ar
     9    36    37   ar
    10    37    40    1
    11    40    41    1
    12    37    38   ar
    13    38    39    1
    14     3     4   ar
    15     4     5   ar
    16     5     6   ar
    17     6     7   ar
    18     7    15    1
    19    15    16    2
    20    15    17   am
    21    17    19    1
    22    19    20   ar
    23    20    21   ar
    24    21    22   ar
    25    22    23    1
    26    22    24   ar
    27    24    26    1
    28    26    27    1
    29    26    28    1
    30    26    29    1
    31    24    25   ar
    32     7     8   ar
    33     8     9   ar
    34     9    10   ar
    35     9    11    1
    36    11    12    1
    37    12    13    1
    38    13    14    1
    39    10     2   ar
    40    38    32   ar
    41    10     5   ar
    42    25    19   ar
    43    14     8    1
    44    30    31    1
    45    41    42    1
    46    17    18    1
