@<TRIPOS>MOLECULE
*****
 36 41 0 0 0
SMALL
GASTEIGER

@<TRIPOS>ATOM
      1 C         -21.3287   -9.1018  -10.4766 C.ar    1  UNL1        0.1395
      2 N         -21.0740   -9.3198   -9.1508 N.ar    1  UNL1       -0.2088
      3 C         -20.8848   -8.2908   -8.2686 C.ar    1  UNL1        0.2014
      4 N         -20.9619   -6.9965   -8.6904 N.ar    1  UNL1       -0.2050
      5 C         -21.2033   -6.7651  -10.0025 C.ar    1  UNL1        0.1654
      6 C         -21.3556   -7.7688  -10.9147 C.ar    1  UNL1        0.0866
      7 C         -21.5296   -7.0989  -12.1255 C.ar    1  UNL1        0.1095
      8 N         -21.5013   -5.7622  -11.8973 N.ar    1  UNL1       -0.1677
      9 N         -21.3130   -5.5690  -10.5987 N.ar    1  UNL1       -0.2319
     10 C         -21.1496   -4.2613   -9.9780 C.3     1  UNL1        0.1554
     11 C         -21.6230   -7.6552  -13.4800 C.ar    1  UNL1        0.0577
     12 C         -20.5501   -8.0153  -14.2687 C.ar    1  UNL1        0.1231
     13 N         -21.0032   -8.5183  -15.4312 N.ar    1  UNL1       -0.1676
     14 N         -22.3273   -8.5081  -15.3963 N.ar    1  UNL1       -0.2488
     15 C         -23.1379   -9.0367  -16.4889 C.3     1  UNL1        0.1537
     16 C         -22.7518   -7.9845  -14.2189 C.ar    1  UNL1        0.0809
     17 C         -24.1641   -7.9014  -13.7612 C.ar    1  UNL1        0.0174
     18 C         -24.6764   -6.7129  -13.2157 C.ar    1  UNL1        0.0012
     19 C         -25.9954   -6.6492  -12.7589 C.ar    1  UNL1       -0.0042
     20 C         -26.8323   -7.7691  -12.8553 C.ar    1  UNL1       -0.0218
     21 C         -28.2323   -7.7152  -12.3201 C.3     1  UNL1        0.0310
     22 C         -26.3273   -8.9591  -13.3961 C.ar    1  UNL1       -0.0042
     23 C         -25.0091   -9.0215  -13.8555 C.ar    1  UNL1        0.0012
     24 C         -22.9327  -10.6699  -11.7036 C.3     1  UNL1        0.2081
     25 C         -22.7524  -12.0593  -12.3767 C.3     1  UNL1        0.1064
     26 C         -21.2248  -12.2507  -12.4741 C.3     1  UNL1        0.0418
     27 C         -20.5988  -11.2592  -11.5181 C.3     1  UNL1        0.0959
     28 N         -21.5922  -10.2231  -11.3343 N.pl3   1  UNL1       -0.2703
     29 N         -23.4114  -12.1513  -13.7138 N.3     1  UNL1       -0.2703
     30 C         -24.7430  -12.7998  -13.6136 C.3     1  UNL1        0.0722
     31 C         -25.4557  -12.7863  -14.9704 C.3     1  UNL1        0.0174
     32 C         -24.6177  -13.5075  -16.0243 C.3     1  UNL1        0.0029
     33 C         -23.2049  -12.9279  -16.0643 C.3     1  UNL1        0.0174
     34 C         -22.5808  -12.9362  -14.6645 C.3     1  UNL1        0.0722
     35 C         -24.6140   -9.7485  -10.3618 C.3     1  UNL1        0.1761
     36 O         -23.7198  -10.8270  -10.5312 O.3     1  UNL1       -0.3337
@<TRIPOS>BOND
     1    35    36    1
     2    36    24    1
     3    24    25    1
     4    25    29    1
     5    29    30    1
     6    30    31    1
     7    31    32    1
     8    32    33    1
     9    33    34    1
    10    25    26    1
    11    26    27    1
    12    27    28    1
    13    28     1    1
    14     1     2   ar
    15     2     3   ar
    16     3     4   ar
    17     4     5   ar
    18     5     6   ar
    19     6     7   ar
    20     7    11    1
    21    11    12   ar
    22    12    13   ar
    23    13    14   ar
    24    14    15    1
    25    14    16   ar
    26    16    17    1
    27    17    18   ar
    28    18    19   ar
    29    19    20   ar
    30    20    21    1
    31    20    22   ar
    32    22    23   ar
    33     7     8   ar
    34     8     9   ar
    35     9    10    1
    36    28    24    1
    37     6     1   ar
    38    16    11   ar
    39    23    17   ar
    40    34    29    1
    41     9     5   ar
@<TRIPOS>MOLECULE
*****
 36 41 0 0 0
SMALL
GASTEIGER

@<TRIPOS>ATOM
      1 C         -21.3319  -11.3503  -12.6203 C.ar    1  UNL1        0.1395
      2 N         -21.2782  -12.6544  -13.0283 N.ar    1  UNL1       -0.2088
      3 C         -20.4336  -13.5626  -12.4494 C.ar    1  UNL1        0.2014
      4 N         -19.6192  -13.1905  -11.4212 N.ar    1  UNL1       -0.2050
      5 C         -19.6539  -11.8998  -11.0131 C.ar    1  UNL1        0.1654
      6 C         -20.4545  -10.9610  -11.5965 C.ar    1  UNL1        0.0866
      7 C         -20.1419   -9.7838  -10.9171 C.ar    1  UNL1        0.1095
      8 N         -19.2145  -10.0571   -9.9660 N.ar    1  UNL1       -0.1677
      9 N         -18.9317  -11.3516  -10.0251 N.ar    1  UNL1       -0.2319
     10 C         -17.9203  -12.0096   -9.2089 C.3     1  UNL1        0.1554
     11 C         -20.6010   -8.4163  -11.1859 C.ar    1  UNL1        0.0577
     12 C         -19.8963   -7.4642  -11.8928 C.ar    1  UNL1        0.1231
     13 N         -20.6296   -6.3393  -11.9744 N.ar    1  UNL1       -0.1676
     14 N         -21.7837   -6.5546  -11.3611 N.ar    1  UNL1       -0.2488
     15 C         -22.8369   -5.5454  -11.3099 C.3     1  UNL1        0.1537
     16 C         -21.8095   -7.8149  -10.8597 C.ar    1  UNL1        0.0809
     17 C         -22.9709   -8.4653  -10.1969 C.ar    1  UNL1        0.0174
     18 C         -22.7852   -9.5252   -9.2942 C.ar    1  UNL1        0.0012
     19 C         -23.8816  -10.1531   -8.6975 C.ar    1  UNL1       -0.0042
     20 C         -25.1844   -9.7205   -8.9795 C.ar    1  UNL1       -0.0218
     21 C         -26.3627  -10.4264   -8.3772 C.3     1  UNL1        0.0310
     22 C         -25.3774   -8.6653   -9.8812 C.ar    1  UNL1       -0.0042
     23 C         -24.2806   -8.0358  -10.4754 C.ar    1  UNL1        0.0012
     24 C         -23.7151  -10.4626  -12.8842 C.3     1  UNL1        0.2081
     25 C         -24.4073   -9.5823  -13.9622 C.3     1  UNL1        0.1064
     26 C         -23.2467   -9.0021  -14.7965 C.3     1  UNL1        0.0418
     27 C         -22.0295   -9.8507  -14.5008 C.3     1  UNL1        0.0959
     28 N         -22.2934  -10.4669  -13.2183 N.pl3   1  UNL1       -0.2703
     29 N         -25.2642   -8.5078  -13.3777 N.3     1  UNL1       -0.2703
     30 C         -26.7054   -8.8408  -13.5042 C.3     1  UNL1        0.0722
     31 C         -27.5686   -7.7870  -12.8017 C.3     1  UNL1        0.0174
     32 C         -27.3135   -6.4023  -13.3938 C.3     1  UNL1        0.0029
     33 C         -25.8191   -6.0864  -13.3759 C.3     1  UNL1        0.0174
     34 C         -25.0248   -7.2069  -14.0562 C.3     1  UNL1        0.0722
     35 C         -24.9998  -11.9607  -14.1416 C.3     1  UNL1        0.1761
     36 O         -24.2272  -11.7849  -12.9740 O.3     1  UNL1       -0.3337
@<TRIPOS>BOND
     1    35    36    1
     2    36    24    1
     3    24    25    1
     4    25    29    1
     5    29    30    1
     6    30    31    1
     7    31    32    1
     8    32    33    1
     9    33    34    1
    10    25    26    1
    11    26    27    1
    12    27    28    1
    13    28     1    1
    14     1     2   ar
    15     2     3   ar
    16     3     4   ar
    17     4     5   ar
    18     5     6   ar
    19     6     7   ar
    20     7    11    1
    21    11    12   ar
    22    12    13   ar
    23    13    14   ar
    24    14    15    1
    25    14    16   ar
    26    16    17    1
    27    17    18   ar
    28    18    19   ar
    29    19    20   ar
    30    20    21    1
    31    20    22   ar
    32    22    23   ar
    33     7     8   ar
    34     8     9   ar
    35     9    10    1
    36    28    24    1
    37     6     1   ar
    38    16    11   ar
    39    23    17   ar
    40    34    29    1
    41     9     5   ar
@<TRIPOS>MOLECULE
*****
 36 41 0 0 0
SMALL
GASTEIGER

@<TRIPOS>ATOM
      1 C         -21.0934  -11.5338  -12.3070 C.ar    1  UNL1        0.1395
      2 N         -21.0681  -12.7899  -12.8470 N.ar    1  UNL1       -0.2088
      3 C         -20.1900  -13.7478  -12.4176 C.ar    1  UNL1        0.2014
      4 N         -19.3111  -13.4775  -11.4109 N.ar    1  UNL1       -0.2050
      5 C         -19.3176  -12.2348  -10.8732 C.ar    1  UNL1        0.1654
      6 C         -20.1521  -11.2456  -11.3069 C.ar    1  UNL1        0.0866
      7 C         -19.7948  -10.1415  -10.5334 C.ar    1  UNL1        0.1095
      8 N         -18.8092  -10.5050   -9.6756 N.ar    1  UNL1       -0.1677
      9 N         -18.5330  -11.7856   -9.8828 N.ar    1  UNL1       -0.2319
     10 C         -17.4729  -12.5178   -9.2031 C.3     1  UNL1        0.1554
     11 C         -20.2677   -8.7560  -10.6332 C.ar    1  UNL1        0.0577
     12 C         -20.5302   -8.0870  -11.8106 C.ar    1  UNL1        0.1231
     13 N         -20.9777   -6.8503  -11.5279 N.ar    1  UNL1       -0.1676
     14 N         -21.0273   -6.7214  -10.2105 N.ar    1  UNL1       -0.2488
     15 C         -21.5203   -5.5081   -9.5662 C.3     1  UNL1        0.1537
     16 C         -20.5983   -7.8652   -9.6204 C.ar    1  UNL1        0.0809
     17 C         -20.6057   -8.1483   -8.1607 C.ar    1  UNL1        0.0174
     18 C         -19.4691   -7.9030   -7.3730 C.ar    1  UNL1        0.0012
     19 C         -19.4712   -8.1995   -6.0074 C.ar    1  UNL1       -0.0042
     20 C         -20.6171   -8.7310   -5.4007 C.ar    1  UNL1       -0.0218
     21 C         -20.6028   -9.0949   -3.9458 C.3     1  UNL1        0.0310
     22 C         -21.7541   -8.9808   -6.1809 C.ar    1  UNL1       -0.0042
     23 C         -21.7525   -8.6815   -7.5458 C.ar    1  UNL1        0.0012
     24 C         -23.4060  -10.4568  -12.1343 C.3     1  UNL1        0.2081
     25 C         -24.2396   -9.5705  -13.1016 C.3     1  UNL1        0.1064
     26 C         -23.2383   -9.1316  -14.1899 C.3     1  UNL1        0.0418
     27 C         -22.0534  -10.0676  -14.0960 C.3     1  UNL1        0.0959
     28 N         -22.0895  -10.5991  -12.7505 N.pl3   1  UNL1       -0.2703
     29 N         -24.8729   -8.4003  -12.4232 N.3     1  UNL1       -0.2703
     30 C         -26.3226   -8.3192  -12.7324 C.3     1  UNL1        0.0722
     31 C         -26.9824   -7.1837  -11.9422 C.3     1  UNL1        0.0174
     32 C         -26.3184   -5.8470  -12.2671 C.3     1  UNL1        0.0029
     33 C         -24.8076   -5.9434  -12.0628 C.3     1  UNL1        0.0174
     34 C         -24.2335   -7.1274  -12.8485 C.3     1  UNL1        0.0722
     35 C         -24.8249  -12.0076  -13.1628 C.3     1  UNL1        0.1761
     36 O         -24.0232  -11.7327  -12.0346 O.3     1  UNL1       -0.3337
@<TRIPOS>BOND
     1    35    36    1
     2    36    24    1
     3    24    25    1
     4    25    29    1
     5    29    30    1
     6    30    31    1
     7    31    32    1
     8    32    33    1
     9    33    34    1
    10    25    26    1
    11    26    27    1
    12    27    28    1
    13    28     1    1
    14     1     2   ar
    15     2     3   ar
    16     3     4   ar
    17     4     5   ar
    18     5     6   ar
    19     6     7   ar
    20     7    11    1
    21    11    12   ar
    22    12    13   ar
    23    13    14   ar
    24    14    15    1
    25    14    16   ar
    26    16    17    1
    27    17    18   ar
    28    18    19   ar
    29    19    20   ar
    30    20    21    1
    31    20    22   ar
    32    22    23   ar
    33     7     8   ar
    34     8     9   ar
    35     9    10    1
    36    28    24    1
    37     6     1   ar
    38    16    11   ar
    39    23    17   ar
    40    34    29    1
    41     9     5   ar
@<TRIPOS>MOLECULE
*****
 36 41 0 0 0
SMALL
GASTEIGER

@<TRIPOS>ATOM
      1 C         -25.7120   -8.7232  -12.8221 C.ar    1  UNL1        0.1395
      2 N         -26.8310   -8.9181  -12.0606 N.ar    1  UNL1       -0.2088
      3 C         -27.9071   -8.0746  -12.1214 C.ar    1  UNL1        0.2014
      4 N         -27.9004   -7.0067  -12.9691 N.ar    1  UNL1       -0.2050
      5 C         -26.7951   -6.7951  -13.7221 C.ar    1  UNL1        0.1654
      6 C         -25.6903   -7.5936  -13.6545 C.ar    1  UNL1        0.0866
      7 C         -24.7901   -6.9971  -14.5371 C.ar    1  UNL1        0.1095
      8 N         -25.3790   -5.9133  -15.1012 N.ar    1  UNL1       -0.1677
      9 N         -26.6047   -5.8050  -14.6062 N.ar    1  UNL1       -0.2319
     10 C         -27.5220   -4.7163  -14.9148 C.3     1  UNL1        0.1554
     11 C         -23.3876   -7.3429  -14.7949 C.ar    1  UNL1        0.0577
     12 C         -22.4223   -7.5283  -13.8271 C.ar    1  UNL1        0.1231
     13 N         -21.2620   -7.8675  -14.4171 N.ar    1  UNL1       -0.1676
     14 N         -21.4658   -7.9236  -15.7248 N.ar    1  UNL1       -0.2488
     15 C         -20.4151   -8.3151  -16.6592 C.3     1  UNL1        0.1537
     16 C         -22.7552   -7.6066  -16.0028 C.ar    1  UNL1        0.0809
     17 C         -23.3957   -7.6595  -17.3437 C.ar    1  UNL1        0.0174
     18 C         -23.9949   -6.5185  -17.9020 C.ar    1  UNL1        0.0012
     19 C         -24.6222   -6.5811  -19.1490 C.ar    1  UNL1       -0.0042
     20 C         -24.6467   -7.7831  -19.8690 C.ar    1  UNL1       -0.0218
     21 C         -25.3626   -7.8622  -21.1845 C.3     1  UNL1        0.0310
     22 C         -24.0532   -8.9264  -19.3171 C.ar    1  UNL1       -0.0042
     23 C         -23.4234   -8.8625  -18.0713 C.ar    1  UNL1        0.0012
     24 C         -24.5770  -10.8720  -13.6171 C.3     1  UNL1        0.2081
     25 C         -23.4519  -11.7626  -13.0195 C.3     1  UNL1        0.1064
     26 C         -22.8348  -10.9084  -11.8929 C.3     1  UNL1        0.0418
     27 C         -23.8312   -9.8139  -11.5792 C.3     1  UNL1        0.0959
     28 N         -24.6487   -9.6870  -12.7665 N.pl3   1  UNL1       -0.2703
     29 N         -22.4314  -12.1722  -14.0301 N.3     1  UNL1       -0.2703
     30 C         -22.5763  -11.3944  -15.2863 C.3     1  UNL1        0.0722
     31 C         -21.4553  -11.7431  -16.2718 C.3     1  UNL1        0.0174
     32 C         -21.4693  -13.2360  -16.5944 C.3     1  UNL1        0.0029
     33 C         -21.4345  -14.0560  -15.3060 C.3     1  UNL1        0.0174
     34 C         -22.5565  -13.6165  -14.3589 C.3     1  UNL1        0.0722
     35 C         -25.9400  -12.4880  -14.6205 C.3     1  UNL1        0.1761
     36 O         -25.8071  -11.5798  -13.5488 O.3     1  UNL1       -0.3337
@<TRIPOS>BOND
     1    35    36    1
     2    36    24    1
     3    24    25    1
     4    25    29    1
     5    29    30    1
     6    30    31    1
     7    31    32    1
     8    32    33    1
     9    33    34    1
    10    25    26    1
    11    26    27    1
    12    27    28    1
    13    28     1    1
    14     1     2   ar
    15     2     3   ar
    16     3     4   ar
    17     4     5   ar
    18     5     6   ar
    19     6     7   ar
    20     7    11    1
    21    11    12   ar
    22    12    13   ar
    23    13    14   ar
    24    14    15    1
    25    14    16   ar
    26    16    17    1
    27    17    18   ar
    28    18    19   ar
    29    19    20   ar
    30    20    21    1
    31    20    22   ar
    32    22    23   ar
    33     7     8   ar
    34     8     9   ar
    35     9    10    1
    36    28    24    1
    37     6     1   ar
    38    16    11   ar
    39    23    17   ar
    40    34    29    1
    41     9     5   ar
@<TRIPOS>MOLECULE
*****
 36 41 0 0 0
SMALL
GASTEIGER

@<TRIPOS>ATOM
      1 C         -24.7505  -11.3095  -13.0431 C.ar    1  UNL1        0.1395
      2 N         -25.9592  -11.7571  -13.5002 N.ar    1  UNL1       -0.2088
      3 C         -26.0735  -12.8853  -14.2664 C.ar    1  UNL1        0.2014
      4 N         -24.9687  -13.6167  -14.5879 N.ar    1  UNL1       -0.2050
      5 C         -23.7637  -13.1803  -14.1508 C.ar    1  UNL1        0.1654
      6 C         -23.6116  -12.0375  -13.4202 C.ar    1  UNL1        0.0866
      7 C         -22.2330  -11.9392  -13.2332 C.ar    1  UNL1        0.1095
      8 N         -21.6322  -13.0054  -13.8179 N.ar    1  UNL1       -0.1677
      9 N         -22.5745  -13.7617  -14.3649 N.ar    1  UNL1       -0.2319
     10 C         -22.3127  -14.9593  -15.1519 C.3     1  UNL1        0.1554
     11 C         -21.4625  -10.8511  -12.6207 C.ar    1  UNL1        0.0577
     12 C         -20.6608  -10.9732  -11.5048 C.ar    1  UNL1        0.1231
     13 N         -20.0811   -9.7878  -11.2433 N.ar    1  UNL1       -0.1676
     14 N         -20.4725   -8.9247  -12.1687 N.ar    1  UNL1       -0.2488
     15 C         -19.9843   -7.5497  -12.2056 C.3     1  UNL1        0.1537
     16 C         -21.3230   -9.5325  -13.0334 C.ar    1  UNL1        0.0809
     17 C         -21.8938   -8.9259  -14.2652 C.ar    1  UNL1        0.0174
     18 C         -22.8151   -7.8686  -14.1879 C.ar    1  UNL1        0.0012
     19 C         -23.3717   -7.3225  -15.3474 C.ar    1  UNL1       -0.0042
     20 C         -23.0036   -7.8128  -16.6076 C.ar    1  UNL1       -0.0218
     21 C         -23.6381   -7.2599  -17.8490 C.3     1  UNL1        0.0310
     22 C         -22.0870   -8.8694  -16.6923 C.ar    1  UNL1       -0.0042
     23 C         -21.5283   -9.4132  -15.5327 C.ar    1  UNL1        0.0012
     24 C         -24.3844  -10.2218  -10.7582 C.3     1  UNL1        0.2081
     25 C         -24.7463   -8.8269  -10.1758 C.3     1  UNL1        0.1064
     26 C         -25.1391   -7.9807  -11.4044 C.3     1  UNL1        0.0418
     27 C         -25.4190   -8.9509  -12.5312 C.3     1  UNL1        0.0959
     28 N         -24.7076  -10.1615  -12.1813 N.pl3   1  UNL1       -0.2703
     29 N         -23.6265   -8.2057   -9.4072 N.3     1  UNL1       -0.2703
     30 C         -22.9504   -7.1491  -10.2012 C.3     1  UNL1        0.0722
     31 C         -21.8791   -6.4432   -9.3626 C.3     1  UNL1        0.0174
     32 C         -20.8407   -7.4462   -8.8636 C.3     1  UNL1        0.0029
     33 C         -21.5275   -8.6026   -8.1394 C.3     1  UNL1        0.0174
     34 C         -22.6123   -9.2236   -9.0263 C.3     1  UNL1        0.0722
     35 C         -25.7312  -10.7313   -8.9136 C.3     1  UNL1        0.1761
     36 O         -25.1943  -11.2054  -10.1294 O.3     1  UNL1       -0.3337
@<TRIPOS>BOND
     1    35    36    1
     2    36    24    1
     3    24    25    1
     4    25    29    1
     5    29    30    1
     6    30    31    1
     7    31    32    1
     8    32    33    1
     9    33    34    1
    10    25    26    1
    11    26    27    1
    12    27    28    1
    13    28     1    1
    14     1     2   ar
    15     2     3   ar
    16     3     4   ar
    17     4     5   ar
    18     5     6   ar
    19     6     7   ar
    20     7    11    1
    21    11    12   ar
    22    12    13   ar
    23    13    14   ar
    24    14    15    1
    25    14    16   ar
    26    16    17    1
    27    17    18   ar
    28    18    19   ar
    29    19    20   ar
    30    20    21    1
    31    20    22   ar
    32    22    23   ar
    33     7     8   ar
    34     8     9   ar
    35     9    10    1
    36    28    24    1
    37     6     1   ar
    38    16    11   ar
    39    23    17   ar
    40    34    29    1
    41     9     5   ar
@<TRIPOS>MOLECULE
*****
 36 41 0 0 0
SMALL
GASTEIGER

@<TRIPOS>ATOM
      1 C         -24.6243   -8.8305  -10.8069 C.ar    1  UNL1        0.1395
      2 N         -25.2809   -8.8045   -9.6076 N.ar    1  UNL1       -0.2088
      3 C         -26.6204   -8.5383   -9.5185 C.ar    1  UNL1        0.2014
      4 N         -27.3542   -8.3032  -10.6433 N.ar    1  UNL1       -0.2050
      5 C         -26.7156   -8.3156  -11.8373 C.ar    1  UNL1        0.1654
      6 C         -25.3741   -8.5370  -11.9562 C.ar    1  UNL1        0.0866
      7 C         -25.1329   -8.4118  -13.3242 C.ar    1  UNL1        0.1095
      8 N         -26.3047   -8.1536  -13.9562 N.ar    1  UNL1       -0.1677
      9 N         -27.2652   -8.1079  -13.0427 N.ar    1  UNL1       -0.2319
     10 C         -28.6549   -7.7771  -13.3277 C.3     1  UNL1        0.1554
     11 C         -23.8511   -8.4288  -14.0381 C.ar    1  UNL1        0.0577
     12 C         -22.9162   -7.4146  -14.0204 C.ar    1  UNL1        0.1231
     13 N         -21.8504   -7.7809  -14.7550 N.ar    1  UNL1       -0.1676
     14 N         -22.0704   -9.0016  -15.2198 N.ar    1  UNL1       -0.2488
     15 C         -21.0821   -9.7187  -16.0193 C.3     1  UNL1        0.1537
     16 C         -23.2869   -9.4380  -14.8073 C.ar    1  UNL1        0.0809
     17 C         -23.8485  -10.7959  -15.0349 C.ar    1  UNL1        0.0174
     18 C         -24.3210  -11.5697  -13.9622 C.ar    1  UNL1        0.0012
     19 C         -24.8196  -12.8571  -14.1778 C.ar    1  UNL1       -0.0042
     20 C         -24.8708  -13.3881  -15.4736 C.ar    1  UNL1       -0.0218
     21 C         -25.3600  -14.7880  -15.6985 C.3     1  UNL1        0.0310
     22 C         -24.3987  -12.6229  -16.5484 C.ar    1  UNL1       -0.0042
     23 C         -23.9029  -11.3343  -16.3327 C.ar    1  UNL1        0.0012
     24 C         -22.1445   -8.2590  -10.5584 C.3     1  UNL1        0.2081
     25 C         -20.8392   -8.9811  -10.9952 C.3     1  UNL1        0.1064
     26 C         -21.2913  -10.4042  -11.3828 C.3     1  UNL1        0.0418
     27 C         -22.7893  -10.3459  -11.5869 C.3     1  UNL1        0.0959
     28 N         -23.2342   -9.1902  -10.8382 N.pl3   1  UNL1       -0.2703
     29 N         -19.7959   -9.0002   -9.9267 N.3     1  UNL1       -0.2703
     30 C         -19.2066  -10.3543   -9.7747 C.3     1  UNL1        0.0722
     31 C         -18.0611  -10.3355   -8.7565 C.3     1  UNL1        0.0174
     32 C         -18.5576   -9.8424   -7.3988 C.3     1  UNL1        0.0029
     33 C         -19.2686   -8.4990   -7.5516 C.3     1  UNL1        0.0174
     34 C         -20.3668   -8.5903   -8.6168 C.3     1  UNL1        0.0722
     35 C         -22.0549   -5.9209  -10.5958 C.3     1  UNL1        0.1761
     36 O         -22.3069   -7.0884  -11.3472 O.3     1  UNL1       -0.3337
@<TRIPOS>BOND
     1    35    36    1
     2    36    24    1
     3    24    25    1
     4    25    29    1
     5    29    30    1
     6    30    31    1
     7    31    32    1
     8    32    33    1
     9    33    34    1
    10    25    26    1
    11    26    27    1
    12    27    28    1
    13    28     1    1
    14     1     2   ar
    15     2     3   ar
    16     3     4   ar
    17     4     5   ar
    18     5     6   ar
    19     6     7   ar
    20     7    11    1
    21    11    12   ar
    22    12    13   ar
    23    13    14   ar
    24    14    15    1
    25    14    16   ar
    26    16    17    1
    27    17    18   ar
    28    18    19   ar
    29    19    20   ar
    30    20    21    1
    31    20    22   ar
    32    22    23   ar
    33     7     8   ar
    34     8     9   ar
    35     9    10    1
    36    28    24    1
    37     6     1   ar
    38    16    11   ar
    39    23    17   ar
    40    34    29    1
    41     9     5   ar
@<TRIPOS>MOLECULE
*****
 36 41 0 0 0
SMALL
GASTEIGER

@<TRIPOS>ATOM
      1 C         -24.0771  -11.0851  -12.8526 C.ar    1  UNL1        0.1395
      2 N         -24.6964  -12.2968  -12.9871 N.ar    1  UNL1       -0.2088
      3 C         -24.8642  -12.8956  -14.2062 C.ar    1  UNL1        0.2014
      4 N         -24.3966  -12.2983  -15.3392 N.ar    1  UNL1       -0.2050
      5 C         -23.7901  -11.0933  -15.2229 C.ar    1  UNL1        0.1654
      6 C         -23.6439  -10.4512  -14.0273 C.ar    1  UNL1        0.0866
      7 C         -23.0281   -9.2466  -14.3660 C.ar    1  UNL1        0.1095
      8 N         -22.8123   -9.2233  -15.7048 N.ar    1  UNL1       -0.1677
      9 N         -23.2703  -10.3580  -16.2165 N.ar    1  UNL1       -0.2319
     10 C         -23.2862  -10.6701  -17.6393 C.3     1  UNL1        0.1554
     11 C         -22.7269   -8.0941  -13.5092 C.ar    1  UNL1        0.0577
     12 C         -21.4710   -7.7428  -13.0595 C.ar    1  UNL1        0.1231
     13 N         -21.5606   -6.6175  -12.3278 N.ar    1  UNL1       -0.1676
     14 N         -22.8281   -6.2331  -12.3168 N.ar    1  UNL1       -0.2488
     15 C         -23.2640   -5.0110  -11.6484 C.3     1  UNL1        0.1537
     16 C         -23.5806   -7.1107  -13.0269 C.ar    1  UNL1        0.0809
     17 C         -25.0285   -6.9679  -13.3335 C.ar    1  UNL1        0.0174
     18 C         -25.9792   -7.8080  -12.7309 C.ar    1  UNL1        0.0012
     19 C         -27.3355   -7.6899  -13.0456 C.ar    1  UNL1       -0.0042
     20 C         -27.7682   -6.7169  -13.9567 C.ar    1  UNL1       -0.0218
     21 C         -29.2175   -6.6230  -14.3313 C.3     1  UNL1        0.0310
     22 C         -26.8250   -5.8770  -14.5638 C.ar    1  UNL1       -0.0042
     23 C         -25.4692   -5.9935  -14.2465 C.ar    1  UNL1        0.0012
     24 C         -22.5714  -10.5295  -10.8621 C.3     1  UNL1        0.2081
     25 C         -22.8630  -10.1452   -9.3845 C.3     1  UNL1        0.1064
     26 C         -24.3698   -9.8158   -9.3569 C.3     1  UNL1        0.0418
     27 C         -24.9698  -10.4103  -10.6121 C.3     1  UNL1        0.0959
     28 N         -23.8660  -10.5468  -11.5379 N.pl3   1  UNL1       -0.2703
     29 N         -22.0339   -8.9998   -8.9036 N.3     1  UNL1       -0.2703
     30 C         -22.5986   -7.7019   -9.3514 C.3     1  UNL1        0.0722
     31 C         -21.8050   -6.5324   -8.7584 C.3     1  UNL1        0.0174
     32 C         -20.3365   -6.6164   -9.1702 C.3     1  UNL1        0.0029
     33 C         -19.7663   -7.9893   -8.8188 C.3     1  UNL1        0.0174
     34 C         -20.6399   -9.1013   -9.4097 C.3     1  UNL1        0.0722
     35 C         -20.8604  -11.8752  -11.7210 C.3     1  UNL1        0.1761
     36 O         -22.0027  -11.8312  -10.8937 O.3     1  UNL1       -0.3337
@<TRIPOS>BOND
     1    35    36    1
     2    36    24    1
     3    24    25    1
     4    25    29    1
     5    29    30    1
     6    30    31    1
     7    31    32    1
     8    32    33    1
     9    33    34    1
    10    25    26    1
    11    26    27    1
    12    27    28    1
    13    28     1    1
    14     1     2   ar
    15     2     3   ar
    16     3     4   ar
    17     4     5   ar
    18     5     6   ar
    19     6     7   ar
    20     7    11    1
    21    11    12   ar
    22    12    13   ar
    23    13    14   ar
    24    14    15    1
    25    14    16   ar
    26    16    17    1
    27    17    18   ar
    28    18    19   ar
    29    19    20   ar
    30    20    21    1
    31    20    22   ar
    32    22    23   ar
    33     7     8   ar
    34     8     9   ar
    35     9    10    1
    36    28    24    1
    37     6     1   ar
    38    16    11   ar
    39    23    17   ar
    40    34    29    1
    41     9     5   ar
@<TRIPOS>MOLECULE
*****
 36 41 0 0 0
SMALL
GASTEIGER

@<TRIPOS>ATOM
      1 C         -21.8264   -7.4370  -12.5617 C.ar    1  UNL1        0.1395
      2 N         -21.6184   -6.0870  -12.4965 N.ar    1  UNL1       -0.2088
      3 C         -21.0202   -5.4954  -11.4170 C.ar    1  UNL1        0.2014
      4 N         -20.5928   -6.2498  -10.3648 N.ar    1  UNL1       -0.2050
      5 C         -20.8011   -7.5870  -10.4107 C.ar    1  UNL1        0.1654
      6 C         -21.4312   -8.2020  -11.4536 C.ar    1  UNL1        0.0866
      7 C         -21.4788   -9.5431  -11.0736 C.ar    1  UNL1        0.1095
      8 N         -20.8728   -9.6811   -9.8682 N.ar    1  UNL1       -0.1677
      9 N         -20.4533   -8.4851   -9.4776 N.ar    1  UNL1       -0.2319
     10 C         -19.8208   -8.2153   -8.1934 C.3     1  UNL1        0.1554
     11 C         -22.1457  -10.6660  -11.7424 C.ar    1  UNL1        0.0577
     12 C         -21.5154  -11.7956  -12.2215 C.ar    1  UNL1        0.1231
     13 N         -22.4340  -12.6293  -12.7417 N.ar    1  UNL1       -0.1676
     14 N         -23.6271  -12.0746  -12.5890 N.ar    1  UNL1       -0.2488
     15 C         -24.8552  -12.7455  -13.0038 C.3     1  UNL1        0.1537
     16 C         -23.4986  -10.8678  -11.9827 C.ar    1  UNL1        0.0809
     17 C         -24.6155   -9.9892  -11.5452 C.ar    1  UNL1        0.0174
     18 C         -25.4137   -9.3160  -12.4846 C.ar    1  UNL1        0.0012
     19 C         -26.4426   -8.4675  -12.0675 C.ar    1  UNL1       -0.0042
     20 C         -26.7035   -8.2901  -10.7021 C.ar    1  UNL1       -0.0218
     21 C         -27.7754   -7.3416  -10.2540 C.3     1  UNL1        0.0310
     22 C         -25.9096   -8.9565   -9.7590 C.ar    1  UNL1       -0.0042
     23 C         -24.8827   -9.8072  -10.1767 C.ar    1  UNL1        0.0012
     24 C         -21.6257   -8.7688  -14.7351 C.3     1  UNL1        0.2081
     25 C         -22.5478   -8.9194  -15.9773 C.3     1  UNL1        0.1064
     26 C         -23.8978   -8.3168  -15.5369 C.3     1  UNL1        0.0418
     27 C         -23.6219   -7.4799  -14.3071 C.3     1  UNL1        0.0959
     28 N         -22.3910   -8.0033  -13.7546 N.pl3   1  UNL1       -0.2703
     29 N         -22.6915  -10.3352  -16.4306 N.3     1  UNL1       -0.2703
     30 C         -24.0287  -10.8781  -16.0825 C.3     1  UNL1        0.0722
     31 C         -24.2048  -12.2904  -16.6513 C.3     1  UNL1        0.0174
     32 C         -23.1220  -13.2245  -16.1144 C.3     1  UNL1        0.0029
     33 C         -21.7379  -12.6279  -16.3632 C.3     1  UNL1        0.0174
     34 C         -21.6588  -11.2026  -15.8054 C.3     1  UNL1        0.0722
     35 C         -20.3180   -7.9890  -16.5121 C.3     1  UNL1        0.1761
     36 O         -20.4677   -8.0357  -15.1097 O.3     1  UNL1       -0.3337
@<TRIPOS>BOND
     1    35    36    1
     2    36    24    1
     3    24    25    1
     4    25    29    1
     5    29    30    1
     6    30    31    1
     7    31    32    1
     8    32    33    1
     9    33    34    1
    10    25    26    1
    11    26    27    1
    12    27    28    1
    13    28     1    1
    14     1     2   ar
    15     2     3   ar
    16     3     4   ar
    17     4     5   ar
    18     5     6   ar
    19     6     7   ar
    20     7    11    1
    21    11    12   ar
    22    12    13   ar
    23    13    14   ar
    24    14    15    1
    25    14    16   ar
    26    16    17    1
    27    17    18   ar
    28    18    19   ar
    29    19    20   ar
    30    20    21    1
    31    20    22   ar
    32    22    23   ar
    33     7     8   ar
    34     8     9   ar
    35     9    10    1
    36    28    24    1
    37     6     1   ar
    38    16    11   ar
    39    23    17   ar
    40    34    29    1
    41     9     5   ar
@<TRIPOS>MOLECULE
*****
 36 41 0 0 0
SMALL
GASTEIGER

@<TRIPOS>ATOM
      1 C         -24.3599   -8.7941  -11.6990 C.ar    1  UNL1        0.1395
      2 N         -24.8518   -9.0974  -10.4596 N.ar    1  UNL1       -0.2088
      3 C         -24.1299   -9.8194   -9.5482 C.ar    1  UNL1        0.2014
      4 N         -22.8720  -10.2508   -9.8492 N.ar    1  UNL1       -0.2050
      5 C         -22.3755   -9.9668  -11.0765 C.ar    1  UNL1        0.1654
      6 C         -23.0854   -9.2848  -12.0219 C.ar    1  UNL1        0.0866
      7 C         -22.2362   -9.2618  -13.1280 C.ar    1  UNL1        0.1095
      8 N         -21.0771   -9.8883  -12.8065 N.ar    1  UNL1       -0.1677
      9 N         -21.1674  -10.3048  -11.5505 N.ar    1  UNL1       -0.2319
     10 C         -20.1464  -11.0897  -10.8698 C.3     1  UNL1        0.1554
     11 C         -22.5036   -8.7678  -14.4835 C.ar    1  UNL1        0.0577
     12 C         -22.1256   -7.5336  -14.9702 C.ar    1  UNL1        0.1231
     13 N         -22.5032   -7.4297  -16.2572 N.ar    1  UNL1       -0.1676
     14 N         -23.0889   -8.5649  -16.6076 N.ar    1  UNL1       -0.2488
     15 C         -23.5744   -8.8031  -17.9632 C.3     1  UNL1        0.1537
     16 C         -23.1139   -9.4145  -15.5502 C.ar    1  UNL1        0.0809
     17 C         -23.5927  -10.8220  -15.5746 C.ar    1  UNL1        0.0174
     18 C         -22.7875  -11.8485  -16.0949 C.ar    1  UNL1        0.0012
     19 C         -23.2542  -13.1647  -16.1436 C.ar    1  UNL1       -0.0042
     20 C         -24.5293  -13.4816  -15.6563 C.ar    1  UNL1       -0.0218
     21 C         -25.0489  -14.8852  -15.7538 C.3     1  UNL1        0.0310
     22 C         -25.3393  -12.4622  -15.1382 C.ar    1  UNL1       -0.0042
     23 C         -24.8710  -11.1466  -15.0870 C.ar    1  UNL1        0.0012
     24 C         -24.8850   -6.5479  -12.8019 C.3     1  UNL1        0.2081
     25 C         -26.1217   -6.0064  -13.5724 C.3     1  UNL1        0.1064
     26 C         -26.9724   -7.2575  -13.8739 C.3     1  UNL1        0.0418
     27 C         -26.4843   -8.3507  -12.9488 C.3     1  UNL1        0.0959
     28 N         -25.1379   -7.9692  -12.5803 N.pl3   1  UNL1       -0.2703
     29 N         -25.7571   -5.2677  -14.8181 N.3     1  UNL1       -0.2703
     30 C         -26.8044   -4.2814  -15.1844 C.3     1  UNL1        0.0722
     31 C         -26.3675   -3.4526  -16.3975 C.3     1  UNL1        0.0174
     32 C         -26.0837   -4.3595  -17.5933 C.3     1  UNL1        0.0029
     33 C         -25.0906   -5.4529  -17.2039 C.3     1  UNL1        0.0174
     34 C         -25.5779   -6.2032  -15.9595 C.3     1  UNL1        0.0722
     35 C         -23.5604   -5.2161  -11.4064 C.3     1  UNL1        0.1761
     36 O         -24.7965   -5.8814  -11.5503 O.3     1  UNL1       -0.3337
@<TRIPOS>BOND
     1    35    36    1
     2    36    24    1
     3    24    25    1
     4    25    29    1
     5    29    30    1
     6    30    31    1
     7    31    32    1
     8    32    33    1
     9    33    34    1
    10    25    26    1
    11    26    27    1
    12    27    28    1
    13    28     1    1
    14     1     2   ar
    15     2     3   ar
    16     3     4   ar
    17     4     5   ar
    18     5     6   ar
    19     6     7   ar
    20     7    11    1
    21    11    12   ar
    22    12    13   ar
    23    13    14   ar
    24    14    15    1
    25    14    16   ar
    26    16    17    1
    27    17    18   ar
    28    18    19   ar
    29    19    20   ar
    30    20    21    1
    31    20    22   ar
    32    22    23   ar
    33     7     8   ar
    34     8     9   ar
    35     9    10    1
    36    28    24    1
    37     6     1   ar
    38    16    11   ar
    39    23    17   ar
    40    34    29    1
    41     9     5   ar
