@<TRIPOS>MOLECULE
*****
 42 46 0 0 0
SMALL
GASTEIGER

@<TRIPOS>ATOM
      1 C          -6.7490  -15.0234   25.2846 C.ar    1  UNL1        0.1649
      2 C          -7.9115  -15.5830   25.8963 C.ar    1  UNL1        0.1226
      3 C          -8.6360  -16.5719   25.1899 C.ar    1  UNL1        0.1430
      4 C          -8.2464  -17.0251   23.9582 C.ar    1  UNL1        0.0327
      5 C          -7.1039  -16.4980   23.3785 C.ar    1  UNL1        0.0785
      6 N          -6.5472  -16.7888   22.1970 N.ar    1  UNL1       -0.3254
      7 C          -5.4732  -15.9660   22.1469 C.ar    1  UNL1        0.1985
      8 N          -5.3267  -15.1797   23.2466 N.ar    1  UNL1       -0.2106
      9 C          -6.3745  -15.5304   24.0154 C.ar    1  UNL1        0.1335
     10 C          -9.1808  -18.0655   23.4604 C.3     1  UNL1        0.0709
     11 C         -10.2202  -18.1632   24.6274 C.3     1  UNL1        0.1375
     12 C         -11.6280  -17.7790   24.1531 C.3     1  UNL1        0.0439
     13 C         -10.2291  -19.5659   25.2495 C.3     1  UNL1        0.0439
     14 O          -9.7812  -17.2175   25.6086 O.3     1  UNL1       -0.4823
     15 H          -6.8667  -17.4807   21.4830 H       1  UNL1        0.1686
     16 C          -8.3813  -15.1394   27.2255 C.2     1  UNL1        0.2555
     17 O          -8.8742  -15.9889   28.0164 O.2     1  UNL1       -0.2696
     18 N          -8.2757  -13.7601   27.6176 N.am    1  UNL1       -0.2805
     19 H          -7.8426  -13.0804   26.9538 H       1  UNL1        0.1552
     20 C          -8.7818  -13.2513   28.8635 C.ar    1  UNL1        0.0465
     21 C         -10.0273  -13.6814   29.3478 C.ar    1  UNL1        0.0143
     22 C         -10.5099  -13.2229   30.5745 C.ar    1  UNL1        0.0051
     23 C          -9.7596  -12.3193   31.3420 C.ar    1  UNL1        0.0712
     24 C          -8.4939  -11.9201   30.8814 C.ar    1  UNL1        0.0008
     25 C          -8.0036  -12.3675   29.6428 C.ar    1  UNL1       -0.0084
     26 C          -6.6497  -11.9104   29.1705 C.3     1  UNL1        0.0323
     27 C         -10.2566  -11.8672   32.6925 C.3     1  UNL1        0.4186
     28 F          -9.3606  -12.2696   33.6652 F       1  UNL1       -0.1659
     29 F         -11.4973  -12.4159   32.9677 F       1  UNL1       -0.1659
     30 F         -10.3760  -10.4887   32.7315 F       1  UNL1       -0.1659
     31 C          -4.7548  -14.1023   26.5074 C.3     1  UNL1        0.2525
     32 O          -6.0535  -13.9904   25.9367 O.3     1  UNL1       -0.4696
     33 N          -4.5613  -15.9489   21.0426 N.pl3   1  UNL1       -0.2816
     34 H          -4.7523  -15.2872   20.2570 H       1  UNL1        0.1551
     35 C          -3.5698  -16.9682   20.8547 C.ar    1  UNL1        0.0889
     36 C          -2.2561  -16.7377   21.2943 C.ar    1  UNL1        0.1543
     37 F          -1.9280  -15.5581   21.8789 F       1  UNL1       -0.2028
     38 C          -1.2706  -17.7124   21.1129 C.ar    1  UNL1        0.0310
     39 C          -1.5909  -18.9279   20.5051 C.ar    1  UNL1        0.0033
     40 C          -2.9001  -19.1776   20.0874 C.ar    1  UNL1        0.0128
     41 C          -3.8952  -18.2085   20.2644 C.ar    1  UNL1        0.0733
     42 CL         -5.5470  -18.6091   19.8084 Cl      1  UNL1       -0.0809
@<TRIPOS>BOND
     1    31    32    1
     2    32     1    1
     3     1     2   ar
     4     2    16    1
     5    16    17    2
     6    16    18   am
     7    18    20    1
     8    20    21   ar
     9    21    22   ar
    10    22    23   ar
    11    23    27    1
    12    27    28    1
    13    27    29    1
    14    27    30    1
    15    23    24   ar
    16    24    25   ar
    17    25    26    1
    18     2     3   ar
    19     3     4   ar
    20     4     5   ar
    21     5     6   ar
    22     6     7   ar
    23     7    33    1
    24    33    35    1
    25    35    36   ar
    26    36    37    1
    27    36    38   ar
    28    38    39   ar
    29    39    40   ar
    30    40    41   ar
    31    41    42    1
    32     7     8   ar
    33     8     9   ar
    34     4    10    1
    35    10    11    1
    36    11    12    1
    37    11    13    1
    38    11    14    1
    39     9     1   ar
    40    25    20   ar
    41    14     3    1
    42     9     5   ar
    43    41    35   ar
    44    18    19    1
    45     6    15    1
    46    33    34    1
@<TRIPOS>MOLECULE
*****
 42 46 0 0 0
SMALL
GASTEIGER

@<TRIPOS>ATOM
      1 C          -8.5400  -14.0616   28.4183 C.ar    1  UNL1        0.1649
      2 C          -7.2761  -13.6440   27.9016 C.ar    1  UNL1        0.1226
      3 C          -6.6897  -12.4667   28.4231 C.ar    1  UNL1        0.1430
      4 C          -7.2786  -11.7342   29.4186 C.ar    1  UNL1        0.0327
      5 C          -8.4928  -12.1562   29.9351 C.ar    1  UNL1        0.0785
      6 N          -9.2384  -11.6004   30.8972 N.ar    1  UNL1       -0.3254
      7 C         -10.3125  -12.4211   30.9732 C.ar    1  UNL1        0.1985
      8 N         -10.2697  -13.4701   30.1091 N.ar    1  UNL1       -0.2106
      9 C          -9.1076  -13.2817   29.4564 C.ar    1  UNL1        0.1335
     10 C          -6.4402  -10.5628   29.7766 C.3     1  UNL1        0.0709
     11 C          -5.2209  -10.7192   28.8068 C.3     1  UNL1        0.1375
     12 C          -5.1112   -9.5227   27.8523 C.3     1  UNL1        0.0439
     13 C          -3.9111  -10.9056   29.5842 C.3     1  UNL1        0.0439
     14 O          -5.4879  -11.9028   28.0468 O.3     1  UNL1       -0.4823
     15 H          -9.0415  -10.7384   31.4529 H       1  UNL1        0.1686
     16 C          -6.5874  -14.3935   26.8302 C.2     1  UNL1        0.2555
     17 O          -5.4163  -14.8151   27.0323 O.2     1  UNL1       -0.2696
     18 N          -7.2413  -14.6449   25.5746 N.am    1  UNL1       -0.2805
     19 H          -8.2196  -14.3056   25.4403 H       1  UNL1        0.1552
     20 C          -6.6007  -15.3003   24.4668 C.ar    1  UNL1        0.0465
     21 C          -5.2150  -15.1761   24.2784 C.ar    1  UNL1        0.0143
     22 C          -4.5779  -15.8394   23.2286 C.ar    1  UNL1        0.0051
     23 C          -5.3138  -16.6380   22.3401 C.ar    1  UNL1        0.0712
     24 C          -6.6932  -16.7996   22.5508 C.ar    1  UNL1        0.0008
     25 C          -7.3459  -16.1275   23.5982 C.ar    1  UNL1       -0.0084
     26 C          -8.8276  -16.3101   23.7891 C.3     1  UNL1        0.0323
     27 C          -4.6167  -17.3983   21.2395 C.3     1  UNL1        0.4186
     28 F          -3.7317  -18.3004   21.7996 F       1  UNL1       -0.1659
     29 F          -3.9181  -16.5351   20.4131 F       1  UNL1       -0.1659
     30 F          -5.5348  -18.0877   20.4663 F       1  UNL1       -0.1659
     31 C          -8.5870  -16.4760   27.7187 C.3     1  UNL1        0.2525
     32 O          -9.1745  -15.1884   27.8670 O.3     1  UNL1       -0.4696
     33 N         -11.3828  -12.2121   31.9017 N.pl3   1  UNL1       -0.2816
     34 H         -11.7892  -11.2524   31.9762 H       1  UNL1        0.1551
     35 C         -11.7292  -13.1825   32.8995 C.ar    1  UNL1        0.0889
     36 C         -12.8379  -14.0184   32.6887 C.ar    1  UNL1        0.1543
     37 F         -13.5789  -13.8990   31.5584 F       1  UNL1       -0.2028
     38 C         -13.2005  -14.9648   33.6514 C.ar    1  UNL1        0.0310
     39 C         -12.4529  -15.0937   34.8236 C.ar    1  UNL1        0.0033
     40 C         -11.3332  -14.2850   35.0317 C.ar    1  UNL1        0.0128
     41 C         -10.9608  -13.3340   34.0739 C.ar    1  UNL1        0.0733
     42 CL         -9.4885  -12.4074   34.3399 Cl      1  UNL1       -0.0809
@<TRIPOS>BOND
     1    31    32    1
     2    32     1    1
     3     1     2   ar
     4     2    16    1
     5    16    17    2
     6    16    18   am
     7    18    20    1
     8    20    21   ar
     9    21    22   ar
    10    22    23   ar
    11    23    27    1
    12    27    28    1
    13    27    29    1
    14    27    30    1
    15    23    24   ar
    16    24    25   ar
    17    25    26    1
    18     2     3   ar
    19     3     4   ar
    20     4     5   ar
    21     5     6   ar
    22     6     7   ar
    23     7    33    1
    24    33    35    1
    25    35    36   ar
    26    36    37    1
    27    36    38   ar
    28    38    39   ar
    29    39    40   ar
    30    40    41   ar
    31    41    42    1
    32     7     8   ar
    33     8     9   ar
    34     4    10    1
    35    10    11    1
    36    11    12    1
    37    11    13    1
    38    11    14    1
    39     9     1   ar
    40    25    20   ar
    41    14     3    1
    42     9     5   ar
    43    41    35   ar
    44    18    19    1
    45     6    15    1
    46    33    34    1
@<TRIPOS>MOLECULE
*****
 42 46 0 0 0
SMALL
GASTEIGER

@<TRIPOS>ATOM
      1 C          -7.7407  -11.6781   30.0181 C.ar    1  UNL1        0.1649
      2 C          -8.8670  -12.5384   29.8452 C.ar    1  UNL1        0.1226
      3 C          -9.8643  -12.5544   30.8487 C.ar    1  UNL1        0.1430
      4 C          -9.7975  -11.7579   31.9602 C.ar    1  UNL1        0.0327
      5 C          -8.7157  -10.9060   32.1125 C.ar    1  UNL1        0.0785
      6 N          -8.4488  -10.0521   33.1077 N.ar    1  UNL1       -0.3254
      7 C          -7.2660   -9.5050   32.7408 C.ar    1  UNL1        0.1985
      8 N          -6.7844   -9.9703   31.5574 N.ar    1  UNL1       -0.2106
      9 C          -7.7181  -10.8618   31.1763 C.ar    1  UNL1        0.1335
     10 C         -10.9787  -11.9722   32.8332 C.3     1  UNL1        0.0709
     11 C         -11.7845  -13.0556   32.0404 C.3     1  UNL1        0.1375
     12 C         -11.9248  -14.3503   32.8520 C.3     1  UNL1        0.0439
     13 C         -13.1658  -12.5308   31.6267 C.3     1  UNL1        0.0439
     14 O         -11.0118  -13.3205   30.8645 O.3     1  UNL1       -0.4823
     15 H          -9.0144   -9.8578   33.9638 H       1  UNL1        0.1686
     16 C          -8.9997  -13.4191   28.6658 C.2     1  UNL1        0.2555
     17 O         -10.1427  -13.6098   28.1685 O.2     1  UNL1       -0.2696
     18 N          -7.8437  -14.0484   28.0870 N.am    1  UNL1       -0.2805
     19 H          -6.9054  -13.8561   28.5029 H       1  UNL1        0.1552
     20 C          -7.9137  -14.9736   26.9888 C.ar    1  UNL1        0.0465
     21 C          -9.1063  -15.6653   26.7235 C.ar    1  UNL1        0.0143
     22 C          -9.1961  -16.5366   25.6369 C.ar    1  UNL1        0.0051
     23 C          -8.0929  -16.7397   24.7940 C.ar    1  UNL1        0.0712
     24 C          -6.9118  -16.0170   25.0305 C.ar    1  UNL1        0.0008
     25 C          -6.8076  -15.1456   26.1281 C.ar    1  UNL1       -0.0084
     26 C          -5.5236  -14.3962   26.3627 C.3     1  UNL1        0.0323
     27 C          -8.2078  -17.6388   23.5883 C.3     1  UNL1        0.4186
     28 F          -9.0191  -17.0349   22.6461 F       1  UNL1       -0.1659
     29 F          -8.7556  -18.8610   23.9380 F       1  UNL1       -0.1659
     30 F          -6.9618  -17.8679   23.0307 F       1  UNL1       -0.1659
     31 C          -5.7158  -10.6857   28.9065 C.3     1  UNL1        0.2525
     32 O          -6.7038  -11.6969   29.0691 O.3     1  UNL1       -0.4696
     33 N          -6.5995   -8.5059   33.5212 N.pl3   1  UNL1       -0.2816
     34 H          -6.9783   -8.2895   34.4706 H       1  UNL1        0.1551
     35 C          -5.6185   -7.6245   32.9572 C.ar    1  UNL1        0.0889
     36 C          -4.3701   -7.4937   33.5870 C.ar    1  UNL1        0.1543
     37 F          -4.1018   -8.1851   34.7232 F       1  UNL1       -0.2028
     38 C          -3.4019   -6.6332   33.0614 C.ar    1  UNL1        0.0310
     39 C          -3.6663   -5.9084   31.8977 C.ar    1  UNL1        0.0033
     40 C          -4.8951   -6.0505   31.2490 C.ar    1  UNL1        0.0128
     41 C          -5.8720   -6.9098   31.7666 C.ar    1  UNL1        0.0733
     42 CL         -7.3650   -7.1255   30.8603 Cl      1  UNL1       -0.0809
@<TRIPOS>BOND
     1    31    32    1
     2    32     1    1
     3     1     2   ar
     4     2    16    1
     5    16    17    2
     6    16    18   am
     7    18    20    1
     8    20    21   ar
     9    21    22   ar
    10    22    23   ar
    11    23    27    1
    12    27    28    1
    13    27    29    1
    14    27    30    1
    15    23    24   ar
    16    24    25   ar
    17    25    26    1
    18     2     3   ar
    19     3     4   ar
    20     4     5   ar
    21     5     6   ar
    22     6     7   ar
    23     7    33    1
    24    33    35    1
    25    35    36   ar
    26    36    37    1
    27    36    38   ar
    28    38    39   ar
    29    39    40   ar
    30    40    41   ar
    31    41    42    1
    32     7     8   ar
    33     8     9   ar
    34     4    10    1
    35    10    11    1
    36    11    12    1
    37    11    13    1
    38    11    14    1
    39     9     1   ar
    40    25    20   ar
    41    14     3    1
    42     9     5   ar
    43    41    35   ar
    44    18    19    1
    45     6    15    1
    46    33    34    1
@<TRIPOS>MOLECULE
*****
 42 46 0 0 0
SMALL
GASTEIGER

@<TRIPOS>ATOM
      1 C          -8.5288  -13.3235   29.0664 C.ar    1  UNL1        0.1649
      2 C          -7.2197  -12.8892   28.6973 C.ar    1  UNL1        0.1226
      3 C          -6.5971  -11.8855   29.4763 C.ar    1  UNL1        0.1430
      4 C          -7.1948  -11.3393   30.5803 C.ar    1  UNL1        0.0327
      5 C          -8.4548  -11.7809   30.9501 C.ar    1  UNL1        0.0785
      6 N          -9.2166  -11.3904   31.9785 N.ar    1  UNL1       -0.3254
      7 C         -10.3362  -12.1388   31.8396 C.ar    1  UNL1        0.1985
      8 N         -10.3069  -12.9864   30.7768 N.ar    1  UNL1       -0.2106
      9 C          -9.1049  -12.7412   30.2228 C.ar    1  UNL1        0.1335
     10 C          -6.3131  -10.3233   31.2078 C.3     1  UNL1        0.0709
     11 C          -5.0567  -10.3527   30.2739 C.3     1  UNL1        0.1375
     12 C          -4.8342   -8.9938   29.5967 C.3     1  UNL1        0.0439
     13 C          -3.7999  -10.7793   31.0440 C.3     1  UNL1        0.0439
     14 O          -5.3490  -11.3335   29.2727 O.3     1  UNL1       -0.4823
     15 H          -9.0014  -10.6766   32.7098 H       1  UNL1        0.1686
     16 C          -6.5195  -13.4427   27.5194 C.2     1  UNL1        0.2555
     17 O          -5.5234  -12.8261   27.0527 O.2     1  UNL1       -0.2696
     18 N          -6.9615  -14.6692   26.9132 N.am    1  UNL1       -0.2805
     19 H          -7.7744  -15.1729   27.3325 H       1  UNL1        0.1552
     20 C          -6.3724  -15.2202   25.7230 C.ar    1  UNL1        0.0465
     21 C          -5.0174  -15.5870   25.7107 C.ar    1  UNL1        0.0143
     22 C          -4.4457  -16.1581   24.5728 C.ar    1  UNL1        0.0051
     23 C          -5.2157  -16.3702   23.4192 C.ar    1  UNL1        0.0712
     24 C          -6.5820  -16.0446   23.4418 C.ar    1  UNL1        0.0008
     25 C          -7.1647  -15.4592   24.5787 C.ar    1  UNL1       -0.0084
     26 C          -8.6282  -15.1086   24.5667 C.3     1  UNL1        0.0323
     27 C          -4.6112  -17.0379   22.2091 C.3     1  UNL1        0.4186
     28 F          -3.3774  -16.4727   21.9465 F       1  UNL1       -0.1659
     29 F          -5.4259  -16.8769   21.1017 F       1  UNL1       -0.1659
     30 F          -4.4480  -18.3943   22.4315 F       1  UNL1       -0.1659
     31 C          -8.9852  -15.6757   28.3051 C.3     1  UNL1        0.2525
     32 O          -9.1950  -14.2688   28.2671 O.3     1  UNL1       -0.4696
     33 N         -11.4391  -12.0590   32.7499 N.pl3   1  UNL1       -0.2816
     34 H         -11.5744  -11.1702   33.2822 H       1  UNL1        0.1551
     35 C         -12.1873  -13.2165   33.1469 C.ar    1  UNL1        0.0889
     36 C         -11.7253  -13.9987   34.2179 C.ar    1  UNL1        0.1543
     37 F         -10.5770  -13.6680   34.8604 F       1  UNL1       -0.2028
     38 C         -12.4324  -15.1369   34.6162 C.ar    1  UNL1        0.0310
     39 C         -13.6111  -15.4951   33.9592 C.ar    1  UNL1        0.0033
     40 C         -14.0933  -14.7098   32.9095 C.ar    1  UNL1        0.0128
     41 C         -13.3932  -13.5674   32.5025 C.ar    1  UNL1        0.0733
     42 CL        -14.0925  -12.5605   31.2399 Cl      1  UNL1       -0.0809
@<TRIPOS>BOND
     1    31    32    1
     2    32     1    1
     3     1     2   ar
     4     2    16    1
     5    16    17    2
     6    16    18   am
     7    18    20    1
     8    20    21   ar
     9    21    22   ar
    10    22    23   ar
    11    23    27    1
    12    27    28    1
    13    27    29    1
    14    27    30    1
    15    23    24   ar
    16    24    25   ar
    17    25    26    1
    18     2     3   ar
    19     3     4   ar
    20     4     5   ar
    21     5     6   ar
    22     6     7   ar
    23     7    33    1
    24    33    35    1
    25    35    36   ar
    26    36    37    1
    27    36    38   ar
    28    38    39   ar
    29    39    40   ar
    30    40    41   ar
    31    41    42    1
    32     7     8   ar
    33     8     9   ar
    34     4    10    1
    35    10    11    1
    36    11    12    1
    37    11    13    1
    38    11    14    1
    39     9     1   ar
    40    25    20   ar
    41    14     3    1
    42     9     5   ar
    43    41    35   ar
    44    18    19    1
    45     6    15    1
    46    33    34    1
@<TRIPOS>MOLECULE
*****
 42 46 0 0 0
SMALL
GASTEIGER

@<TRIPOS>ATOM
      1 C          -8.3881  -10.3671   32.1802 C.ar    1  UNL1        0.1649
      2 C          -8.6007   -8.9587   32.0818 C.ar    1  UNL1        0.1226
      3 C          -9.8817   -8.4946   31.7006 C.ar    1  UNL1        0.1430
      4 C         -10.9242   -9.3459   31.4497 C.ar    1  UNL1        0.0327
      5 C         -10.7212  -10.7109   31.5704 C.ar    1  UNL1        0.0785
      6 N         -11.5867  -11.7124   31.3740 N.ar    1  UNL1       -0.3254
      7 C         -10.8442  -12.8185   31.6151 C.ar    1  UNL1        0.1985
      8 N          -9.5560  -12.5555   31.9620 N.ar    1  UNL1       -0.2106
      9 C          -9.4973  -11.2113   31.9245 C.ar    1  UNL1        0.1335
     10 C         -12.1467   -8.5876   31.0837 C.3     1  UNL1        0.0709
     11 C         -11.6515   -7.1041   31.1594 C.3     1  UNL1        0.1375
     12 C         -11.7555   -6.4118   29.7940 C.3     1  UNL1        0.0439
     13 C         -12.4254   -6.3120   32.2216 C.3     1  UNL1        0.0439
     14 O         -10.2742   -7.1813   31.5427 O.3     1  UNL1       -0.4823
     15 H         -12.5919  -11.6550   31.0969 H       1  UNL1        0.1686
     16 C          -7.5175   -7.9881   32.3439 C.2     1  UNL1        0.2555
     17 O          -7.8151   -6.8328   32.7526 O.2     1  UNL1       -0.2696
     18 N          -6.1415   -8.3528   32.1416 N.am    1  UNL1       -0.2805
     19 H          -5.9198   -9.3228   31.8250 H       1  UNL1        0.1552
     20 C          -5.0477   -7.4342   32.3053 C.ar    1  UNL1        0.0465
     21 C          -4.3780   -7.3461   33.5360 C.ar    1  UNL1        0.0143
     22 C          -3.2906   -6.4855   33.6937 C.ar    1  UNL1        0.0051
     23 C          -2.8519   -5.6893   32.6249 C.ar    1  UNL1        0.0712
     24 C          -3.4918   -5.8063   31.3798 C.ar    1  UNL1        0.0008
     25 C          -4.5942   -6.6617   31.2136 C.ar    1  UNL1       -0.0084
     26 C          -5.2673   -6.7541   29.8706 C.3     1  UNL1        0.0323
     27 C          -1.6429   -4.8008   32.7799 C.3     1  UNL1        0.4186
     28 F          -1.6567   -4.2292   34.0385 F       1  UNL1       -0.1659
     29 F          -1.6472   -3.7957   31.8281 F       1  UNL1       -0.1659
     30 F          -0.4776   -5.5327   32.6296 F       1  UNL1       -0.1659
     31 C          -6.1399  -11.2932   31.5410 C.3     1  UNL1        0.2525
     32 O          -7.1057  -10.8533   32.4889 O.3     1  UNL1       -0.4696
     33 N         -11.3807  -14.1441   31.5357 N.pl3   1  UNL1       -0.2816
     34 H         -11.2981  -14.6548   30.6279 H       1  UNL1        0.1551
     35 C         -12.2425  -14.6815   32.5486 C.ar    1  UNL1        0.0889
     36 C         -13.2744  -15.5588   32.1775 C.ar    1  UNL1        0.1543
     37 F         -13.4599  -15.8832   30.8732 F       1  UNL1       -0.2028
     38 C         -14.1329  -16.0872   33.1460 C.ar    1  UNL1        0.0310
     39 C         -13.9602  -15.7559   34.4912 C.ar    1  UNL1        0.0033
     40 C         -12.9212  -14.9045   34.8742 C.ar    1  UNL1        0.0128
     41 C         -12.0551  -14.3698   33.9125 C.ar    1  UNL1        0.0733
     42 CL        -10.7055  -13.3802   34.4567 Cl      1  UNL1       -0.0809
@<TRIPOS>BOND
     1    31    32    1
     2    32     1    1
     3     1     2   ar
     4     2    16    1
     5    16    17    2
     6    16    18   am
     7    18    20    1
     8    20    21   ar
     9    21    22   ar
    10    22    23   ar
    11    23    27    1
    12    27    28    1
    13    27    29    1
    14    27    30    1
    15    23    24   ar
    16    24    25   ar
    17    25    26    1
    18     2     3   ar
    19     3     4   ar
    20     4     5   ar
    21     5     6   ar
    22     6     7   ar
    23     7    33    1
    24    33    35    1
    25    35    36   ar
    26    36    37    1
    27    36    38   ar
    28    38    39   ar
    29    39    40   ar
    30    40    41   ar
    31    41    42    1
    32     7     8   ar
    33     8     9   ar
    34     4    10    1
    35    10    11    1
    36    11    12    1
    37    11    13    1
    38    11    14    1
    39     9     1   ar
    40    25    20   ar
    41    14     3    1
    42     9     5   ar
    43    41    35   ar
    44    18    19    1
    45     6    15    1
    46    33    34    1
@<TRIPOS>MOLECULE
*****
 42 46 0 0 0
SMALL
GASTEIGER

@<TRIPOS>ATOM
      1 C          -8.5418  -11.9195   29.9250 C.ar    1  UNL1        0.1649
      2 C          -9.4592  -13.0128   29.9650 C.ar    1  UNL1        0.1226
      3 C         -10.3880  -13.0757   31.0304 C.ar    1  UNL1        0.1430
      4 C         -10.4523  -12.1147   32.0035 C.ar    1  UNL1        0.0327
      5 C          -9.5773  -11.0422   31.9477 C.ar    1  UNL1        0.0785
      6 N          -9.4636  -10.0028   32.7828 N.ar    1  UNL1       -0.3254
      7 C          -8.4444   -9.2864   32.2527 C.ar    1  UNL1        0.1985
      8 N          -7.9205   -9.8246   31.1193 N.ar    1  UNL1       -0.2106
      9 C          -8.6516  -10.9412   30.9444 C.ar    1  UNL1        0.1335
     10 C         -11.5224  -12.4284   32.9832 C.3     1  UNL1        0.0709
     11 C         -12.1034  -13.7695   32.4214 C.3     1  UNL1        0.1375
     12 C         -11.9252  -14.9171   33.4243 C.3     1  UNL1        0.0439
     13 C         -13.5813  -13.6188   32.0373 C.3     1  UNL1        0.0439
     14 O         -11.3391  -14.0522   31.2442 O.3     1  UNL1       -0.4823
     15 H         -10.0234   -9.7961   33.6399 H       1  UNL1        0.1686
     16 C          -9.4435  -14.0796   28.9424 C.2     1  UNL1        0.2555
     17 O          -9.8959  -15.2190   29.2380 O.2     1  UNL1       -0.2696
     18 N          -8.9247  -13.8254   27.6257 N.am    1  UNL1       -0.2805
     19 H          -8.5773  -12.8673   27.3986 H       1  UNL1        0.1552
     20 C          -8.8115  -14.8379   26.6113 C.ar    1  UNL1        0.0465
     21 C          -9.7435  -14.8939   25.5628 C.ar    1  UNL1        0.0143
     22 C          -9.6203  -15.8488   24.5524 C.ar    1  UNL1        0.0051
     23 C          -8.5647  -16.7730   24.5710 C.ar    1  UNL1        0.0712
     24 C          -7.6060  -16.6927   25.5946 C.ar    1  UNL1        0.0008
     25 C          -7.7269  -15.7420   26.6225 C.ar    1  UNL1       -0.0084
     26 C          -6.6909  -15.6907   27.7129 C.3     1  UNL1        0.0323
     27 C          -8.4010  -17.7686   23.4498 C.3     1  UNL1        0.4186
     28 F          -8.8963  -18.9943   23.8538 F       1  UNL1       -0.1659
     29 F          -7.0665  -17.9110   23.1109 F       1  UNL1       -0.1659
     30 F          -9.0903  -17.3524   22.3238 F       1  UNL1       -0.1659
     31 C          -6.1799  -11.6152   29.1189 C.3     1  UNL1        0.2525
     32 O          -7.5645  -11.8731   28.9156 O.3     1  UNL1       -0.4696
     33 N          -7.9814   -8.0578   32.8251 N.pl3   1  UNL1       -0.2816
     34 H          -8.2157   -7.8614   33.8241 H       1  UNL1        0.1551
     35 C          -7.4515   -6.9932   32.0231 C.ar    1  UNL1        0.0889
     36 C          -8.3362   -6.1184   31.3718 C.ar    1  UNL1        0.1543
     37 F          -9.6770   -6.2879   31.4915 F       1  UNL1       -0.2028
     38 C          -7.8431   -5.0796   30.5769 C.ar    1  UNL1        0.0310
     39 C          -6.4659   -4.8977   30.4369 C.ar    1  UNL1        0.0033
     40 C          -5.5771   -5.7463   31.1009 C.ar    1  UNL1        0.0128
     41 C          -6.0600   -6.7898   31.9000 C.ar    1  UNL1        0.0733
     42 CL         -4.9012   -7.7701   32.7904 Cl      1  UNL1       -0.0809
@<TRIPOS>BOND
     1    31    32    1
     2    32     1    1
     3     1     2   ar
     4     2    16    1
     5    16    17    2
     6    16    18   am
     7    18    20    1
     8    20    21   ar
     9    21    22   ar
    10    22    23   ar
    11    23    27    1
    12    27    28    1
    13    27    29    1
    14    27    30    1
    15    23    24   ar
    16    24    25   ar
    17    25    26    1
    18     2     3   ar
    19     3     4   ar
    20     4     5   ar
    21     5     6   ar
    22     6     7   ar
    23     7    33    1
    24    33    35    1
    25    35    36   ar
    26    36    37    1
    27    36    38   ar
    28    38    39   ar
    29    39    40   ar
    30    40    41   ar
    31    41    42    1
    32     7     8   ar
    33     8     9   ar
    34     4    10    1
    35    10    11    1
    36    11    12    1
    37    11    13    1
    38    11    14    1
    39     9     1   ar
    40    25    20   ar
    41    14     3    1
    42     9     5   ar
    43    41    35   ar
    44    18    19    1
    45     6    15    1
    46    33    34    1
