@<TRIPOS>MOLECULE
*****
 35 39 0 0 0
SMALL
GASTEIGER

@<TRIPOS>ATOM
      1 C         -60.8998  -45.1311  -28.0818 C.2     1  UNL1        0.2490
      2 O         -60.4648  -46.2626  -27.7324 O.2     1  UNL1       -0.2699
      3 N         -61.4696  -44.2554  -27.0894 N.am    1  UNL1       -0.2760
      4 C         -62.1042  -44.8371  -25.8987 C.3     1  UNL1        0.0954
      5 C         -63.0359  -43.8172  -25.2342 C.3     1  UNL1        0.0399
      6 C         -62.3087  -42.4919  -24.8413 C.3     1  UNL1        0.0645
      7 C         -61.0792  -42.2207  -25.7609 C.3     1  UNL1        0.0399
      8 C         -61.2608  -42.8007  -27.1667 C.3     1  UNL1        0.0954
      9 C         -61.8024  -42.5855  -23.3578 C.3     1  UNL1        0.0477
     10 C         -62.9325  -42.4078  -22.3899 C.ar    1  UNL1        0.0220
     11 C         -63.0305  -42.7188  -21.0538 C.ar    1  UNL1        0.0923
     12 N         -64.1896  -42.1888  -20.5878 N.ar    1  UNL1       -0.2534
     13 N         -64.8031  -41.5272  -21.5656 N.ar    1  UNL1       -0.1651
     14 C         -64.0367  -41.6616  -22.6614 C.ar    1  UNL1        0.1515
     15 C         -64.2385  -41.0715  -23.9749 C.2     1  UNL1        0.2650
     16 O         -65.2099  -40.3046  -24.2073 O.2     1  UNL1       -0.2684
     17 N         -63.2753  -41.3761  -24.9958 N.am    1  UNL1       -0.3023
     18 H         -63.3944  -40.9273  -25.9326 H       1  UNL1        0.1497
     19 C         -63.0318  -43.6371  -32.2944 C.ar    1  UNL1        0.2248
     20 N         -62.9209  -43.2790  -33.6033 N.ar    1  UNL1       -0.2101
     21 C         -61.7280  -43.2646  -34.2492 C.ar    1  UNL1        0.1021
     22 C         -60.5603  -43.6236  -33.5776 C.ar    1  UNL1        0.0213
     23 C         -60.6212  -44.0015  -32.2253 C.ar    1  UNL1        0.0114
     24 C         -59.4655  -44.3791  -31.5061 C.ar    1  UNL1        0.0304
     25 I         -57.5193  -44.4257  -32.3597 I       1  UNL1       -0.0425
     26 C         -59.5716  -44.7459  -30.1605 C.ar    1  UNL1        0.0103
     27 C         -60.8106  -44.7356  -29.5057 C.ar    1  UNL1        0.0542
     28 C         -61.9630  -44.3820  -30.2211 C.ar    1  UNL1        0.0092
     29 C         -61.8802  -44.0071  -31.5723 C.ar    1  UNL1        0.0538
     30 C         -65.1665  -44.7512  -31.7015 C.3     1  UNL1        0.2542
     31 O         -64.2854  -43.6348  -31.6699 O.3     1  UNL1       -0.4561
     32 C         -64.6723  -42.2528  -19.1938 C.3     1  UNL1        0.0867
     33 C         -63.6222  -41.6217  -18.2613 C.3     1  UNL1        0.0244
     34 C         -66.0019  -41.4822  -19.0438 C.3     1  UNL1        0.0244
     35 C         -64.9076  -43.7223  -18.7934 C.3     1  UNL1        0.0244
@<TRIPOS>BOND
     1    30    31    1
     2    31    19    1
     3    19    20   ar
     4    20    21   ar
     5    21    22   ar
     6    22    23   ar
     7    23    24   ar
     8    24    25    1
     9    24    26   ar
    10    26    27   ar
    11    27     1    1
    12     1     2    2
    13     1     3   am
    14     3     4    1
    15     4     5    1
    16     5     6    1
    17     6     7    1
    18     7     8    1
    19     6     9    1
    20     9    10    1
    21    10    11   ar
    22    11    12   ar
    23    12    32    1
    24    32    33    1
    25    32    34    1
    26    32    35    1
    27    12    13   ar
    28    13    14   ar
    29    14    15    1
    30    15    16    2
    31    15    17   am
    32    27    28   ar
    33    28    29   ar
    34    29    19   ar
    35    29    23   ar
    36     8     3    1
    37    14    10   ar
    38    17     6    1
    39    17    18    1
@<TRIPOS>MOLECULE
*****
 35 39 0 0 0
SMALL
GASTEIGER

@<TRIPOS>ATOM
      1 C         -61.1119  -42.0312  -21.9036 C.2     1  UNL1        0.2490
      2 O         -60.1040  -42.5584  -21.3581 O.2     1  UNL1       -0.2699
      3 N         -61.3379  -42.2295  -23.3129 N.am    1  UNL1       -0.2760
      4 C         -60.1885  -42.4617  -24.1981 C.3     1  UNL1        0.0954
      5 C         -60.5669  -42.1767  -25.6559 C.3     1  UNL1        0.0399
      6 C         -61.7824  -43.0254  -26.1478 C.3     1  UNL1        0.0645
      7 C         -62.7203  -43.4184  -24.9660 C.3     1  UNL1        0.0399
      8 C         -62.7043  -42.3835  -23.8372 C.3     1  UNL1        0.0954
      9 C         -61.2671  -44.3442  -26.8267 C.3     1  UNL1        0.0477
     10 C         -60.7328  -44.0710  -28.1997 C.ar    1  UNL1        0.0220
     11 C         -59.9148  -44.8203  -29.0127 C.ar    1  UNL1        0.0923
     12 N         -59.8762  -44.2206  -30.2294 N.ar    1  UNL1       -0.2534
     13 N         -60.6647  -43.1490  -30.2244 N.ar    1  UNL1       -0.1651
     14 C         -61.1851  -43.0595  -28.9885 C.ar    1  UNL1        0.1515
     15 C         -62.1558  -42.0979  -28.4914 C.2     1  UNL1        0.2650
     16 O         -62.6483  -41.2151  -29.2424 O.2     1  UNL1       -0.2684
     17 N         -62.5526  -42.2044  -27.1152 N.am    1  UNL1       -0.3023
     18 H         -63.2764  -41.5386  -26.7602 H       1  UNL1        0.1497
     19 C         -62.7733  -37.6468  -20.3096 C.ar    1  UNL1        0.2248
     20 N         -63.6343  -36.9280  -19.5378 N.ar    1  UNL1       -0.2101
     21 C         -64.5622  -37.5221  -18.7461 C.ar    1  UNL1        0.1021
     22 C         -64.6611  -38.9118  -18.6999 C.ar    1  UNL1        0.0213
     23 C         -63.7951  -39.6993  -19.4776 C.ar    1  UNL1        0.0114
     24 C         -63.8543  -41.1106  -19.4581 C.ar    1  UNL1        0.0304
     25 I         -65.2345  -42.2074  -18.2706 I       1  UNL1       -0.0425
     26 C         -62.9745  -41.8554  -20.2502 C.ar    1  UNL1        0.0103
     27 C         -62.0358  -41.2225  -21.0763 C.ar    1  UNL1        0.0542
     28 C         -61.9593  -39.8229  -21.0828 C.ar    1  UNL1        0.0092
     29 C         -62.8347  -39.0542  -20.2980 C.ar    1  UNL1        0.0538
     30 C         -61.5685  -35.5948  -21.0072 C.3     1  UNL1        0.2542
     31 O         -61.8333  -36.9884  -21.1123 O.3     1  UNL1       -0.4561
     32 C         -59.1453  -44.7123  -31.4146 C.3     1  UNL1        0.0867
     33 C         -59.9533  -44.3851  -32.6836 C.3     1  UNL1        0.0244
     34 C         -57.7598  -44.0384  -31.5161 C.3     1  UNL1        0.0244
     35 C         -58.9441  -46.2363  -31.3042 C.3     1  UNL1        0.0244
@<TRIPOS>BOND
     1    30    31    1
     2    31    19    1
     3    19    20   ar
     4    20    21   ar
     5    21    22   ar
     6    22    23   ar
     7    23    24   ar
     8    24    25    1
     9    24    26   ar
    10    26    27   ar
    11    27     1    1
    12     1     2    2
    13     1     3   am
    14     3     4    1
    15     4     5    1
    16     5     6    1
    17     6     7    1
    18     7     8    1
    19     6     9    1
    20     9    10    1
    21    10    11   ar
    22    11    12   ar
    23    12    32    1
    24    32    33    1
    25    32    34    1
    26    32    35    1
    27    12    13   ar
    28    13    14   ar
    29    14    15    1
    30    15    16    2
    31    15    17   am
    32    27    28   ar
    33    28    29   ar
    34    29    19   ar
    35    29    23   ar
    36     8     3    1
    37    14    10   ar
    38    17     6    1
    39    17    18    1
@<TRIPOS>MOLECULE
*****
 35 39 0 0 0
SMALL
GASTEIGER

@<TRIPOS>ATOM
      1 C         -60.0471  -44.2156  -22.8909 C.2     1  UNL1        0.2490
      2 O         -58.8728  -43.7986  -23.0875 O.2     1  UNL1       -0.2699
      3 N         -61.0418  -43.3098  -22.3746 N.am    1  UNL1       -0.2760
      4 C         -60.6186  -42.1873  -21.5262 C.3     1  UNL1        0.0954
      5 C         -61.8034  -41.6506  -20.7150 C.3     1  UNL1        0.0399
      6 C         -63.0028  -41.2032  -21.6100 C.3     1  UNL1        0.0645
      7 C         -63.0311  -41.9839  -22.9593 C.3     1  UNL1        0.0399
      8 C         -62.4375  -43.3901  -22.8342 C.3     1  UNL1        0.0954
      9 C         -62.8815  -39.6708  -21.9306 C.3     1  UNL1        0.0477
     10 C         -63.2808  -38.8394  -20.7496 C.ar    1  UNL1        0.0220
     11 C         -63.0405  -37.5172  -20.4572 C.ar    1  UNL1        0.0923
     12 N         -63.7731  -37.1941  -19.3616 N.ar    1  UNL1       -0.2534
     13 N         -64.4907  -38.2467  -18.9779 N.ar    1  UNL1       -0.1651
     14 C         -64.1899  -39.2469  -19.8236 C.ar    1  UNL1        0.1515
     15 C         -64.7560  -40.5855  -19.8673 C.2     1  UNL1        0.2650
     16 O         -65.6648  -40.9396  -19.0708 O.2     1  UNL1       -0.2684
     17 N         -64.2575  -41.4859  -20.8690 N.am    1  UNL1       -0.3023
     18 H         -64.6847  -42.4384  -20.9291 H       1  UNL1        0.1497
     19 C         -60.4421  -48.9568  -21.5168 C.ar    1  UNL1        0.2248
     20 N         -60.7432  -50.2477  -21.8276 N.ar    1  UNL1       -0.2101
     21 C         -61.1487  -50.6157  -23.0690 C.ar    1  UNL1        0.1021
     22 C         -61.2700  -49.6636  -24.0801 C.ar    1  UNL1        0.0213
     23 C         -60.9707  -48.3173  -23.8104 C.ar    1  UNL1        0.0114
     24 C         -61.0729  -47.3192  -24.8049 C.ar    1  UNL1        0.0304
     25 I         -61.6801  -47.7163  -26.8029 I       1  UNL1       -0.0425
     26 C         -60.7674  -45.9907  -24.4921 C.ar    1  UNL1        0.0103
     27 C         -60.3690  -45.6276  -23.1984 C.ar    1  UNL1        0.0542
     28 C         -60.2457  -46.6177  -22.2140 C.ar    1  UNL1        0.0092
     29 C         -60.5502  -47.9580  -22.5044 C.ar    1  UNL1        0.0538
     30 C         -60.9328  -48.2021  -19.2062 C.3     1  UNL1        0.2542
     31 O         -60.0293  -48.6250  -20.2203 O.3     1  UNL1       -0.4561
     32 C         -63.8423  -35.8621  -18.7279 C.3     1  UNL1        0.0867
     33 C         -64.9501  -35.0334  -19.4034 C.3     1  UNL1        0.0244
     34 C         -64.1625  -35.9928  -17.2231 C.3     1  UNL1        0.0244
     35 C         -62.4877  -35.1436  -18.8820 C.3     1  UNL1        0.0244
@<TRIPOS>BOND
     1    30    31    1
     2    31    19    1
     3    19    20   ar
     4    20    21   ar
     5    21    22   ar
     6    22    23   ar
     7    23    24   ar
     8    24    25    1
     9    24    26   ar
    10    26    27   ar
    11    27     1    1
    12     1     2    2
    13     1     3   am
    14     3     4    1
    15     4     5    1
    16     5     6    1
    17     6     7    1
    18     7     8    1
    19     6     9    1
    20     9    10    1
    21    10    11   ar
    22    11    12   ar
    23    12    32    1
    24    32    33    1
    25    32    34    1
    26    32    35    1
    27    12    13   ar
    28    13    14   ar
    29    14    15    1
    30    15    16    2
    31    15    17   am
    32    27    28   ar
    33    28    29   ar
    34    29    19   ar
    35    29    23   ar
    36     8     3    1
    37    14    10   ar
    38    17     6    1
    39    17    18    1
@<TRIPOS>MOLECULE
*****
 35 39 0 0 0
SMALL
GASTEIGER

@<TRIPOS>ATOM
      1 C         -63.6140  -42.6554  -29.3124 C.2     1  UNL1        0.2490
      2 O         -64.7914  -42.3339  -29.6313 O.2     1  UNL1       -0.2699
      3 N         -63.2196  -42.6114  -27.9272 N.am    1  UNL1       -0.2760
      4 C         -63.8839  -41.6638  -27.0219 C.3     1  UNL1        0.0954
      5 C         -63.0339  -41.4337  -25.7671 C.3     1  UNL1        0.0399
      6 C         -62.7150  -42.7539  -24.9958 C.3     1  UNL1        0.0645
      7 C         -62.7139  -43.9869  -25.9499 C.3     1  UNL1        0.0399
      8 C         -62.3003  -43.6210  -27.3784 C.3     1  UNL1        0.0954
      9 C         -63.7983  -42.9926  -23.8844 C.3     1  UNL1        0.0477
     10 C         -63.5707  -42.0938  -22.7072 C.ar    1  UNL1        0.0220
     11 C         -64.4080  -41.7271  -21.6796 C.ar    1  UNL1        0.0923
     12 N         -63.6707  -41.0472  -20.7655 N.ar    1  UNL1       -0.2534
     13 N         -62.4003  -41.0051  -21.1584 N.ar    1  UNL1       -0.1651
     14 C         -62.3413  -41.6424  -22.3401 C.ar    1  UNL1        0.1515
     15 C         -61.1671  -41.9226  -23.1505 C.2     1  UNL1        0.2650
     16 O         -60.0136  -41.5882  -22.7716 O.2     1  UNL1       -0.2684
     17 N         -61.3660  -42.6169  -24.3919 N.am    1  UNL1       -0.3023
     18 H         -60.5225  -42.8529  -24.9629 H       1  UNL1        0.1497
     19 C         -59.2280  -44.4642  -30.7319 C.ar    1  UNL1        0.2248
     20 N         -58.3793  -44.8371  -31.7290 N.ar    1  UNL1       -0.2101
     21 C         -58.7165  -44.7367  -33.0393 C.ar    1  UNL1        0.1021
     22 C         -59.9654  -44.2387  -33.4078 C.ar    1  UNL1        0.0213
     23 C         -60.8778  -43.8397  -32.4162 C.ar    1  UNL1        0.0114
     24 C         -62.1517  -43.3235  -32.7422 C.ar    1  UNL1        0.0304
     25 I         -62.8417  -43.0856  -34.7386 I       1  UNL1       -0.0425
     26 C         -63.0296  -42.9407  -31.7230 C.ar    1  UNL1        0.0103
     27 C         -62.6699  -43.0705  -30.3747 C.ar    1  UNL1        0.0542
     28 C         -61.3990  -43.5623  -30.0468 C.ar    1  UNL1        0.0092
     29 C         -60.5018  -43.9560  -31.0536 C.ar    1  UNL1        0.0538
     30 C         -59.2785  -45.6474  -28.5531 C.3     1  UNL1        0.2542
     31 O         -58.8356  -44.5883  -29.3931 O.3     1  UNL1       -0.4561
     32 C         -64.1659  -40.5034  -19.4850 C.3     1  UNL1        0.0867
     33 C         -63.0928  -40.7003  -18.3987 C.3     1  UNL1        0.0244
     34 C         -64.4725  -38.9960  -19.6177 C.3     1  UNL1        0.0244
     35 C         -65.4597  -41.2345  -19.0769 C.3     1  UNL1        0.0244
@<TRIPOS>BOND
     1    30    31    1
     2    31    19    1
     3    19    20   ar
     4    20    21   ar
     5    21    22   ar
     6    22    23   ar
     7    23    24   ar
     8    24    25    1
     9    24    26   ar
    10    26    27   ar
    11    27     1    1
    12     1     2    2
    13     1     3   am
    14     3     4    1
    15     4     5    1
    16     5     6    1
    17     6     7    1
    18     7     8    1
    19     6     9    1
    20     9    10    1
    21    10    11   ar
    22    11    12   ar
    23    12    32    1
    24    32    33    1
    25    32    34    1
    26    32    35    1
    27    12    13   ar
    28    13    14   ar
    29    14    15    1
    30    15    16    2
    31    15    17   am
    32    27    28   ar
    33    28    29   ar
    34    29    19   ar
    35    29    23   ar
    36     8     3    1
    37    14    10   ar
    38    17     6    1
    39    17    18    1
@<TRIPOS>MOLECULE
*****
 35 39 0 0 0
SMALL
GASTEIGER

@<TRIPOS>ATOM
      1 C         -60.8395  -44.7455  -22.4752 C.2     1  UNL1        0.2490
      2 O         -59.6471  -44.6802  -22.0687 O.2     1  UNL1       -0.2699
      3 N         -61.7255  -43.6317  -22.2492 N.am    1  UNL1       -0.2760
      4 C         -61.4995  -42.7590  -21.0891 C.3     1  UNL1        0.0954
      5 C         -62.7682  -41.9645  -20.7592 C.3     1  UNL1        0.0399
      6 C         -63.2825  -41.1097  -21.9611 C.3     1  UNL1        0.0645
      7 C         -62.8611  -41.7326  -23.3268 C.3     1  UNL1        0.0399
      8 C         -62.7287  -43.2569  -23.2586 C.3     1  UNL1        0.0954
      9 C         -62.6829  -39.6609  -21.8752 C.3     1  UNL1        0.0477
     10 C         -63.3818  -38.8491  -20.8274 C.ar    1  UNL1        0.0220
     11 C         -63.0107  -37.6862  -20.1937 C.ar    1  UNL1        0.0923
     12 N         -64.0714  -37.2525  -19.4668 N.ar    1  UNL1       -0.2534
     13 N         -65.1026  -38.0733  -19.6479 N.ar    1  UNL1       -0.1651
     14 C         -64.6812  -39.0442  -20.4762 C.ar    1  UNL1        0.1515
     15 C         -65.4502  -40.1467  -21.0305 C.2     1  UNL1        0.2650
     16 O         -66.6775  -40.2804  -20.7824 O.2     1  UNL1       -0.2684
     17 N         -64.7646  -41.0684  -21.8926 N.am    1  UNL1       -0.3023
     18 H         -65.3193  -41.8433  -22.3229 H       1  UNL1        0.1497
     19 C         -63.3147  -46.9539  -26.1521 C.ar    1  UNL1        0.2248
     20 N         -63.7198  -48.0947  -26.7749 N.ar    1  UNL1       -0.2101
     21 C         -63.3879  -49.3264  -26.3128 C.ar    1  UNL1        0.1021
     22 C         -62.6083  -49.4601  -25.1649 C.ar    1  UNL1        0.0213
     23 C         -62.1649  -48.3129  -24.4849 C.ar    1  UNL1        0.0114
     24 C         -61.3785  -48.3996  -23.3146 C.ar    1  UNL1        0.0304
     25 I         -60.7754  -50.2427  -22.4442 I       1  UNL1       -0.0425
     26 C         -60.9568  -47.2317  -22.6709 C.ar    1  UNL1        0.0103
     27 C         -61.2939  -45.9683  -23.1752 C.ar    1  UNL1        0.0542
     28 C         -62.0917  -45.8775  -24.3241 C.ar    1  UNL1        0.0092
     29 C         -62.5242  -47.0369  -24.9890 C.ar    1  UNL1        0.0538
     30 C         -63.2763  -45.2506  -27.9540 C.3     1  UNL1        0.2542
     31 O         -63.6812  -45.7044  -26.6681 O.3     1  UNL1       -0.4561
     32 C         -64.1210  -36.0168  -18.6598 C.3     1  UNL1        0.0867
     33 C         -62.7163  -35.3894  -18.6015 C.3     1  UNL1        0.0244
     34 C         -65.0982  -34.9984  -19.2859 C.3     1  UNL1        0.0244
     35 C         -64.6026  -36.3479  -17.2337 C.3     1  UNL1        0.0244
@<TRIPOS>BOND
     1    30    31    1
     2    31    19    1
     3    19    20   ar
     4    20    21   ar
     5    21    22   ar
     6    22    23   ar
     7    23    24   ar
     8    24    25    1
     9    24    26   ar
    10    26    27   ar
    11    27     1    1
    12     1     2    2
    13     1     3   am
    14     3     4    1
    15     4     5    1
    16     5     6    1
    17     6     7    1
    18     7     8    1
    19     6     9    1
    20     9    10    1
    21    10    11   ar
    22    11    12   ar
    23    12    32    1
    24    32    33    1
    25    32    34    1
    26    32    35    1
    27    12    13   ar
    28    13    14   ar
    29    14    15    1
    30    15    16    2
    31    15    17   am
    32    27    28   ar
    33    28    29   ar
    34    29    19   ar
    35    29    23   ar
    36     8     3    1
    37    14    10   ar
    38    17     6    1
    39    17    18    1
