@<TRIPOS>MOLECULE
*****
 35 38 0 0 0
SMALL
GASTEIGER

@<TRIPOS>ATOM
      1 C          -8.8733  -11.4029   33.5420 C.2     1  UNL1        0.2672
      2 O          -8.6070  -11.9530   34.6447 O.2     1  UNL1       -0.2682
      3 N         -10.1119  -11.7149   32.8793 N.am    1  UNL1       -0.2685
      4 C          -4.9992  -10.6380   30.6610 C.3     1  UNL1        0.0521
      5 C          -6.0638  -10.0285   31.5261 C.ar    1  UNL1        0.0595
      6 N          -6.9294  -10.8630   32.1597 N.ar    1  UNL1       -0.2451
      7 C          -7.9407  -10.4222   32.9526 C.ar    1  UNL1        0.1343
      8 C          -8.1112   -9.0465   33.1487 C.ar    1  UNL1        0.0238
      9 C          -7.2492   -8.1451   32.5119 C.ar    1  UNL1        0.0028
     10 C          -7.4201   -6.7624   32.6836 C.ar    1  UNL1        0.0001
     11 C          -6.5676   -5.8635   32.0398 C.ar    1  UNL1        0.0000
     12 C          -5.5404   -6.3346   31.2212 C.ar    1  UNL1        0.0000
     13 C          -5.3569   -7.7080   31.0402 C.ar    1  UNL1        0.0012
     14 C          -6.2075   -8.6309   31.6823 C.ar    1  UNL1        0.0136
     15 C         -10.3189  -13.0067   32.1867 C.3     1  UNL1        0.1007
     16 C         -10.5136  -12.8632   30.6649 C.3     1  UNL1        0.0265
     17 C         -11.4990  -13.7436   32.7965 C.ar    1  UNL1        0.0234
     18 C         -12.6575  -13.9860   32.0328 C.ar    1  UNL1        0.0019
     19 C         -13.7625  -14.6251   32.6004 C.ar    1  UNL1        0.0295
     20 C         -13.7259  -15.0331   33.9348 C.ar    1  UNL1        0.1424
     21 F         -14.8004  -15.6506   34.4845 F       1  UNL1       -0.2041
     22 C         -12.5828  -14.8036   34.7036 C.ar    1  UNL1        0.0590
     23 C         -11.4730  -14.1621   34.1434 C.ar    1  UNL1        0.1399
     24 F         -10.3826  -13.9425   34.9209 F       1  UNL1       -0.2044
     25 C         -11.2791  -10.8729   33.1917 C.3     1  UNL1        0.1207
     26 C         -11.4007   -9.7385   32.2074 C.ar    1  UNL1       -0.0021
     27 C         -12.4029   -8.7705   32.3634 C.ar    1  UNL1       -0.0026
     28 C         -12.5789   -7.7786   31.3980 C.ar    1  UNL1       -0.0001
     29 C         -11.7607   -7.7440   30.2664 C.ar    1  UNL1        0.0064
     30 C         -10.7412   -8.6974   30.0961 C.ar    1  UNL1        0.0752
     31 C         -10.5633   -9.6867   31.0805 C.ar    1  UNL1        0.0038
     32 C          -9.8968   -8.7060   28.8775 C.2     1  UNL1        0.3380
     33 O          -8.6447   -8.6157   28.9841 O.2     1  UNL1       -0.2451
     34 O         -10.4508   -8.8043   27.6018 O.3     1  UNL1       -0.4771
     35 H         -11.4489   -8.7822   27.4385 H       1  UNL1        0.2954
@<TRIPOS>BOND
     1     4     5    1
     2     5     6   ar
     3     6     7   ar
     4     7     1    1
     5     1     2    2
     6     1     3   am
     7     3    25    1
     8    25    26    1
     9    26    27   ar
    10    27    28   ar
    11    28    29   ar
    12    29    30   ar
    13    30    32    1
    14    32    33    2
    15    32    34    1
    16    30    31   ar
    17     3    15    1
    18    15    16    1
    19    15    17    1
    20    17    18   ar
    21    18    19   ar
    22    19    20   ar
    23    20    21    1
    24    20    22   ar
    25    22    23   ar
    26    23    24    1
    27     7     8   ar
    28     8     9   ar
    29     9    10   ar
    30    10    11   ar
    31    11    12   ar
    32    12    13   ar
    33    13    14   ar
    34    14     5   ar
    35    31    26   ar
    36    23    17   ar
    37    14     9   ar
    38    34    35    1
@<TRIPOS>MOLECULE
*****
 35 38 0 0 0
SMALL
GASTEIGER

@<TRIPOS>ATOM
      1 C          -8.8514  -11.1772   33.3647 C.2     1  UNL1        0.2672
      2 O          -8.4793  -11.6601   34.4683 O.2     1  UNL1       -0.2682
      3 N         -10.1115  -11.5882   32.8042 N.am    1  UNL1       -0.2685
      4 C          -7.3970   -6.5176   33.1077 C.3     1  UNL1        0.0521
      5 C          -7.2789   -7.9052   32.5477 C.ar    1  UNL1        0.0595
      6 N          -8.0562   -8.8813   33.0863 N.ar    1  UNL1       -0.2451
      7 C          -8.0202  -10.1741   32.6706 C.ar    1  UNL1        0.1343
      8 C          -7.1555  -10.5386   31.6315 C.ar    1  UNL1        0.0238
      9 C          -6.3287   -9.5704   31.0482 C.ar    1  UNL1        0.0028
     10 C          -5.4427   -9.9250   30.0187 C.ar    1  UNL1        0.0001
     11 C          -4.6105   -8.9620   29.4449 C.ar    1  UNL1        0.0000
     12 C          -4.6544   -7.6408   29.8919 C.ar    1  UNL1        0.0000
     13 C          -5.5310   -7.2717   30.9155 C.ar    1  UNL1        0.0012
     14 C          -6.3792   -8.2301   31.5069 C.ar    1  UNL1        0.0136
     15 C         -10.2883  -12.9201   32.1829 C.3     1  UNL1        0.1007
     16 C         -10.5110  -12.8622   30.6593 C.3     1  UNL1        0.0265
     17 C         -11.4349  -13.6601   32.8501 C.ar    1  UNL1        0.0234
     18 C         -12.6101  -13.9485   32.1292 C.ar    1  UNL1        0.0019
     19 C         -13.6849  -14.5906   32.7490 C.ar    1  UNL1        0.0295
     20 C         -13.6010  -14.9559   34.0936 C.ar    1  UNL1        0.1424
     21 F         -14.6463  -15.5765   34.6939 F       1  UNL1       -0.2041
     22 C         -12.4407  -14.6806   34.8204 C.ar    1  UNL1        0.0590
     23 C         -11.3609  -14.0357   34.2078 C.ar    1  UNL1        0.1399
     24 F         -10.2528  -13.7709   34.9453 F       1  UNL1       -0.2044
     25 C         -11.3024  -10.7992   33.1619 C.3     1  UNL1        0.1207
     26 C         -11.4691   -9.6272   32.2295 C.ar    1  UNL1       -0.0021
     27 C         -12.5331   -8.7308   32.4025 C.ar    1  UNL1       -0.0026
     28 C         -12.7456   -7.7052   31.4808 C.ar    1  UNL1       -0.0001
     29 C         -11.9024   -7.5653   30.3759 C.ar    1  UNL1        0.0064
     30 C         -10.8217   -8.4455   30.1897 C.ar    1  UNL1        0.0752
     31 C         -10.6079   -9.4693   31.1306 C.ar    1  UNL1        0.0038
     32 C          -9.9475   -8.3428   28.9967 C.2     1  UNL1        0.3380
     33 O          -8.7962   -7.8431   29.1066 O.2     1  UNL1       -0.2451
     34 O         -10.3663   -8.7796   27.7405 O.3     1  UNL1       -0.4771
     35 H         -11.3091   -9.0998   27.5620 H       1  UNL1        0.2954
@<TRIPOS>BOND
     1     4     5    1
     2     5     6   ar
     3     6     7   ar
     4     7     1    1
     5     1     2    2
     6     1     3   am
     7     3    25    1
     8    25    26    1
     9    26    27   ar
    10    27    28   ar
    11    28    29   ar
    12    29    30   ar
    13    30    32    1
    14    32    33    2
    15    32    34    1
    16    30    31   ar
    17     3    15    1
    18    15    16    1
    19    15    17    1
    20    17    18   ar
    21    18    19   ar
    22    19    20   ar
    23    20    21    1
    24    20    22   ar
    25    22    23   ar
    26    23    24    1
    27     7     8   ar
    28     8     9   ar
    29     9    10   ar
    30    10    11   ar
    31    11    12   ar
    32    12    13   ar
    33    13    14   ar
    34    14     5   ar
    35    31    26   ar
    36    23    17   ar
    37    14     9   ar
    38    34    35    1
@<TRIPOS>MOLECULE
*****
 35 38 0 0 0
SMALL
GASTEIGER

@<TRIPOS>ATOM
      1 C          -9.3387  -12.1202   29.8757 C.2     1  UNL1        0.2672
      2 O          -9.0632  -12.9629   28.9793 O.2     1  UNL1       -0.2682
      3 N          -9.1429  -10.7194   29.6109 N.am    1  UNL1       -0.2685
      4 C          -9.0552  -11.8920   34.7503 C.3     1  UNL1        0.0521
      5 C          -9.7809  -12.4410   33.5565 C.ar    1  UNL1        0.0595
      6 N          -9.3039  -12.1355   32.3211 N.ar    1  UNL1       -0.2451
      7 C          -9.8894  -12.5624   31.1719 C.ar    1  UNL1        0.1343
      8 C         -11.0342  -13.3656   31.2405 C.ar    1  UNL1        0.0238
      9 C         -11.5686  -13.7024   32.4903 C.ar    1  UNL1        0.0028
     10 C         -12.7271  -14.4908   32.5743 C.ar    1  UNL1        0.0001
     11 C         -13.2664  -14.8173   33.8200 C.ar    1  UNL1        0.0000
     12 C         -12.6567  -14.3612   34.9895 C.ar    1  UNL1        0.0000
     13 C         -11.5029  -13.5759   34.9229 C.ar    1  UNL1        0.0012
     14 C         -10.9437  -13.2362   33.6741 C.ar    1  UNL1        0.0136
     15 C          -7.7916  -10.1158   29.5796 C.3     1  UNL1        0.1007
     16 C          -6.6550  -11.1476   29.7132 C.3     1  UNL1        0.0265
     17 C          -7.6663   -9.0582   30.6628 C.ar    1  UNL1        0.0234
     18 C          -8.0114   -9.3603   31.9946 C.ar    1  UNL1        0.0019
     19 C          -7.9393   -8.3802   32.9875 C.ar    1  UNL1        0.0295
     20 C          -7.5198   -7.0882   32.6665 C.ar    1  UNL1        0.1424
     21 F          -7.4532   -6.1378   33.6311 F       1  UNL1       -0.2041
     22 C          -7.1702   -6.7746   31.3513 C.ar    1  UNL1        0.0590
     23 C          -7.2420   -7.7496   30.3506 C.ar    1  UNL1        0.1399
     24 F          -6.9079   -7.4092   29.0801 F       1  UNL1       -0.2044
     25 C         -10.2762   -9.9724   29.0395 C.3     1  UNL1        0.1207
     26 C         -10.6835   -8.8397   29.9461 C.ar    1  UNL1       -0.0021
     27 C         -11.4744   -9.0876   31.0768 C.ar    1  UNL1       -0.0026
     28 C         -11.9349   -8.0279   31.8590 C.ar    1  UNL1       -0.0001
     29 C         -11.6149   -6.7112   31.5198 C.ar    1  UNL1        0.0064
     30 C         -10.8126   -6.4406   30.3972 C.ar    1  UNL1        0.0752
     31 C         -10.3428   -7.5160   29.6213 C.ar    1  UNL1        0.0038
     32 C         -10.5051   -5.0474   29.9938 C.2     1  UNL1        0.3380
     33 O          -9.3097   -4.7044   29.7923 O.2     1  UNL1       -0.2451
     34 O         -11.5075   -4.0913   29.8357 O.3     1  UNL1       -0.4771
     35 H         -12.4740   -4.2712   30.0743 H       1  UNL1        0.2954
@<TRIPOS>BOND
     1     4     5    1
     2     5     6   ar
     3     6     7   ar
     4     7     1    1
     5     1     2    2
     6     1     3   am
     7     3    25    1
     8    25    26    1
     9    26    27   ar
    10    27    28   ar
    11    28    29   ar
    12    29    30   ar
    13    30    32    1
    14    32    33    2
    15    32    34    1
    16    30    31   ar
    17     3    15    1
    18    15    16    1
    19    15    17    1
    20    17    18   ar
    21    18    19   ar
    22    19    20   ar
    23    20    21    1
    24    20    22   ar
    25    22    23   ar
    26    23    24    1
    27     7     8   ar
    28     8     9   ar
    29     9    10   ar
    30    10    11   ar
    31    11    12   ar
    32    12    13   ar
    33    13    14   ar
    34    14     5   ar
    35    31    26   ar
    36    23    17   ar
    37    14     9   ar
    38    34    35    1
@<TRIPOS>MOLECULE
*****
 35 38 0 0 0
SMALL
GASTEIGER

@<TRIPOS>ATOM
      1 C         -11.0153   -9.6060   30.9739 C.2     1  UNL1        0.2672
      2 O         -12.1839   -9.6925   30.5086 O.2     1  UNL1       -0.2682
      3 N         -10.4657  -10.7136   31.7101 N.am    1  UNL1       -0.2685
      4 C         -10.9788   -4.8083   30.0393 C.3     1  UNL1        0.0521
      5 C         -10.1700   -6.0443   30.3060 C.ar    1  UNL1        0.0595
      6 N         -10.8326   -7.2190   30.4742 N.ar    1  UNL1       -0.2451
      7 C         -10.2053   -8.3950   30.7369 C.ar    1  UNL1        0.1343
      8 C          -8.8087   -8.4231   30.8327 C.ar    1  UNL1        0.0238
      9 C          -8.0807   -7.2374   30.6741 C.ar    1  UNL1        0.0028
     10 C          -6.6815   -7.2467   30.7868 C.ar    1  UNL1        0.0001
     11 C          -5.9566   -6.0626   30.6397 C.ar    1  UNL1        0.0000
     12 C          -6.6192   -4.8622   30.3801 C.ar    1  UNL1        0.0000
     13 C          -8.0115   -4.8363   30.2647 C.ar    1  UNL1        0.0012
     14 C          -8.7604   -6.0219   30.4098 C.ar    1  UNL1        0.0136
     15 C         -10.9003  -11.0210   33.0914 C.3     1  UNL1        0.1007
     16 C          -9.7689  -10.9057   34.1310 C.3     1  UNL1        0.0265
     17 C         -11.5217  -12.4060   33.1479 C.ar    1  UNL1        0.0234
     18 C         -10.9636  -13.4025   33.9722 C.ar    1  UNL1        0.0019
     19 C         -11.5043  -14.6904   33.9962 C.ar    1  UNL1        0.0295
     20 C         -12.6093  -15.0005   33.2017 C.ar    1  UNL1        0.1424
     21 F         -13.1309  -16.2518   33.2245 F       1  UNL1       -0.2041
     22 C         -13.1765  -14.0219   32.3825 C.ar    1  UNL1        0.0590
     23 C         -12.6394  -12.7305   32.3508 C.ar    1  UNL1        0.1399
     24 F         -13.2057  -11.8062   31.5343 F       1  UNL1       -0.2044
     25 C          -9.7200  -11.7304   30.9492 C.3     1  UNL1        0.1207
     26 C          -8.2477  -11.4102   30.9264 C.ar    1  UNL1       -0.0021
     27 C          -7.5096  -11.3888   32.1182 C.ar    1  UNL1       -0.0026
     28 C          -6.1712  -10.9944   32.1095 C.ar    1  UNL1       -0.0001
     29 C          -5.5568  -10.6142   30.9140 C.ar    1  UNL1        0.0064
     30 C          -6.2749  -10.6403   29.7053 C.ar    1  UNL1        0.0752
     31 C          -7.6204  -11.0508   29.7218 C.ar    1  UNL1        0.0038
     32 C          -5.6537  -10.1922   28.4359 C.2     1  UNL1        0.3380
     33 O          -4.6362  -10.7888   27.9932 O.2     1  UNL1       -0.2451
     34 O          -6.1608   -9.1141   27.7115 O.3     1  UNL1       -0.4771
     35 H          -6.9125   -8.5317   28.0567 H       1  UNL1        0.2954
@<TRIPOS>BOND
     1     4     5    1
     2     5     6   ar
     3     6     7   ar
     4     7     1    1
     5     1     2    2
     6     1     3   am
     7     3    25    1
     8    25    26    1
     9    26    27   ar
    10    27    28   ar
    11    28    29   ar
    12    29    30   ar
    13    30    32    1
    14    32    33    2
    15    32    34    1
    16    30    31   ar
    17     3    15    1
    18    15    16    1
    19    15    17    1
    20    17    18   ar
    21    18    19   ar
    22    19    20   ar
    23    20    21    1
    24    20    22   ar
    25    22    23   ar
    26    23    24    1
    27     7     8   ar
    28     8     9   ar
    29     9    10   ar
    30    10    11   ar
    31    11    12   ar
    32    12    13   ar
    33    13    14   ar
    34    14     5   ar
    35    31    26   ar
    36    23    17   ar
    37    14     9   ar
    38    34    35    1
@<TRIPOS>MOLECULE
*****
 35 38 0 0 0
SMALL
GASTEIGER

@<TRIPOS>ATOM
      1 C          -9.1648  -11.5865   30.4088 C.2     1  UNL1        0.2672
      2 O          -8.5311  -12.2280   29.5276 O.2     1  UNL1       -0.2682
      3 N          -9.3267  -10.1638   30.2657 N.am    1  UNL1       -0.2685
      4 C          -9.0800  -12.3971   35.2285 C.3     1  UNL1        0.0521
      5 C          -9.7537  -12.6784   33.9170 C.ar    1  UNL1        0.0595
      6 N          -9.2289  -12.1196   32.7948 N.ar    1  UNL1       -0.2451
      7 C          -9.7650  -12.2916   31.5584 C.ar    1  UNL1        0.1343
      8 C         -10.9070  -13.0877   31.4086 C.ar    1  UNL1        0.0238
      9 C         -11.4897  -13.6800   32.5359 C.ar    1  UNL1        0.0028
     10 C         -12.6461  -14.4647   32.4037 C.ar    1  UNL1        0.0001
     11 C         -13.2334  -15.0461   33.5290 C.ar    1  UNL1        0.0000
     12 C         -12.6742  -14.8500   34.7924 C.ar    1  UNL1        0.0000
     13 C         -11.5231  -14.0719   34.9407 C.ar    1  UNL1        0.0012
     14 C         -10.9157  -13.4770   33.8160 C.ar    1  UNL1        0.0136
     15 C          -8.2079   -9.2258   30.5102 C.3     1  UNL1        0.1007
     16 C          -7.8834   -8.3285   29.3004 C.3     1  UNL1        0.0265
     17 C          -6.9682   -9.9915   30.9395 C.ar    1  UNL1        0.0234
     18 C          -6.0522  -10.4586   29.9768 C.ar    1  UNL1        0.0019
     19 C          -4.9326  -11.2002   30.3615 C.ar    1  UNL1        0.0295
     20 C          -4.7101  -11.4831   31.7102 C.ar    1  UNL1        0.1424
     21 F          -3.6244  -12.2053   32.0813 F       1  UNL1       -0.2041
     22 C          -5.6071  -11.0230   32.6769 C.ar    1  UNL1        0.0590
     23 C          -6.7320  -10.2818   32.2996 C.ar    1  UNL1        0.1399
     24 F          -7.5910   -9.8606   33.2621 F       1  UNL1       -0.2044
     25 C         -10.5200   -9.6860   29.5470 C.3     1  UNL1        0.1207
     26 C         -11.0800   -8.4490   30.2006 C.ar    1  UNL1       -0.0021
     27 C         -12.1599   -8.5454   31.0894 C.ar    1  UNL1       -0.0026
     28 C         -12.7425   -7.3920   31.6159 C.ar    1  UNL1       -0.0001
     29 C         -12.2570   -6.1318   31.2589 C.ar    1  UNL1        0.0064
     30 C         -11.1668   -6.0125   30.3788 C.ar    1  UNL1        0.0752
     31 C         -10.5780   -7.1811   29.8623 C.ar    1  UNL1        0.0038
     32 C         -10.6711   -4.6826   29.9499 C.2     1  UNL1        0.3380
     33 O          -9.4641   -4.5431   29.6168 O.2     1  UNL1       -0.2451
     34 O         -11.5058   -3.5665   29.9101 O.3     1  UNL1       -0.4771
     35 H         -12.4566   -3.5852   30.2550 H       1  UNL1        0.2954
@<TRIPOS>BOND
     1     4     5    1
     2     5     6   ar
     3     6     7   ar
     4     7     1    1
     5     1     2    2
     6     1     3   am
     7     3    25    1
     8    25    26    1
     9    26    27   ar
    10    27    28   ar
    11    28    29   ar
    12    29    30   ar
    13    30    32    1
    14    32    33    2
    15    32    34    1
    16    30    31   ar
    17     3    15    1
    18    15    16    1
    19    15    17    1
    20    17    18   ar
    21    18    19   ar
    22    19    20   ar
    23    20    21    1
    24    20    22   ar
    25    22    23   ar
    26    23    24    1
    27     7     8   ar
    28     8     9   ar
    29     9    10   ar
    30    10    11   ar
    31    11    12   ar
    32    12    13   ar
    33    13    14   ar
    34    14     5   ar
    35    31    26   ar
    36    23    17   ar
    37    14     9   ar
    38    34    35    1
@<TRIPOS>MOLECULE
*****
 35 38 0 0 0
SMALL
GASTEIGER

@<TRIPOS>ATOM
      1 C          -8.1978  -10.1451   31.6984 C.2     1  UNL1        0.2672
      2 O          -8.4445   -9.9789   30.4732 O.2     1  UNL1       -0.2682
      3 N          -7.2273   -9.3006   32.3432 N.am    1  UNL1       -0.2685
      4 C          -8.5553  -12.6329   35.8909 C.3     1  UNL1        0.0521
      5 C          -9.1264  -12.3783   34.5262 C.ar    1  UNL1        0.0595
      6 N          -8.4858  -11.4920   33.7193 N.ar    1  UNL1       -0.2451
      7 C          -8.9218  -11.1721   32.4730 C.ar    1  UNL1        0.1343
      8 C         -10.0787  -11.7808   31.9718 C.ar    1  UNL1        0.0238
      9 C         -10.7787  -12.6961   32.7676 C.ar    1  UNL1        0.0028
     10 C         -11.9511  -13.2996   32.2859 C.ar    1  UNL1        0.0001
     11 C         -12.6551  -14.2036   33.0836 C.ar    1  UNL1        0.0000
     12 C         -12.1974  -14.5124   34.3652 C.ar    1  UNL1        0.0000
     13 C         -11.0321  -13.9205   34.8591 C.ar    1  UNL1        0.0012
     14 C         -10.3075  -13.0055   34.0681 C.ar    1  UNL1        0.0136
     15 C          -5.7746   -9.4721   32.1158 C.3     1  UNL1        0.1007
     16 C          -4.9160   -8.3778   32.7788 C.3     1  UNL1        0.0265
     17 C          -5.4824   -9.5337   30.6263 C.ar    1  UNL1        0.0234
     18 C          -5.3615   -8.3478   29.8759 C.ar    1  UNL1        0.0019
     19 C          -5.1355   -8.3981   28.4983 C.ar    1  UNL1        0.0295
     20 C          -5.0241   -9.6302   27.8518 C.ar    1  UNL1        0.1424
     21 F          -4.8075   -9.6769   26.5143 F       1  UNL1       -0.2041
     22 C          -5.1373  -10.8147   28.5831 C.ar    1  UNL1        0.0590
     23 C          -5.3662  -10.7729   29.9626 C.ar    1  UNL1        0.1399
     24 F          -5.4843  -11.9418   30.6420 F       1  UNL1       -0.2044
     25 C          -7.7151   -8.0559   32.9607 C.3     1  UNL1        0.1207
     26 C          -7.9789   -7.0052   31.9133 C.ar    1  UNL1       -0.0021
     27 C          -6.9515   -6.1466   31.4975 C.ar    1  UNL1       -0.0026
     28 C          -7.2201   -5.1100   30.6030 C.ar    1  UNL1       -0.0001
     29 C          -8.5155   -4.9166   30.1174 C.ar    1  UNL1        0.0064
     30 C          -9.5583   -5.7736   30.5114 C.ar    1  UNL1        0.0752
     31 C          -9.2758   -6.8235   31.4043 C.ar    1  UNL1        0.0038
     32 C         -10.9484   -5.5525   30.0455 C.2     1  UNL1        0.3380
     33 O         -11.7174   -6.5372   29.8838 O.2     1  UNL1       -0.2451
     34 O         -11.4353   -4.2754   29.7701 O.3     1  UNL1       -0.4771
     35 H         -10.8461   -3.4532   29.7849 H       1  UNL1        0.2954
@<TRIPOS>BOND
     1     4     5    1
     2     5     6   ar
     3     6     7   ar
     4     7     1    1
     5     1     2    2
     6     1     3   am
     7     3    25    1
     8    25    26    1
     9    26    27   ar
    10    27    28   ar
    11    28    29   ar
    12    29    30   ar
    13    30    32    1
    14    32    33    2
    15    32    34    1
    16    30    31   ar
    17     3    15    1
    18    15    16    1
    19    15    17    1
    20    17    18   ar
    21    18    19   ar
    22    19    20   ar
    23    20    21    1
    24    20    22   ar
    25    22    23   ar
    26    23    24    1
    27     7     8   ar
    28     8     9   ar
    29     9    10   ar
    30    10    11   ar
    31    11    12   ar
    32    12    13   ar
    33    13    14   ar
    34    14     5   ar
    35    31    26   ar
    36    23    17   ar
    37    14     9   ar
    38    34    35    1
@<TRIPOS>MOLECULE
*****
 35 38 0 0 0
SMALL
GASTEIGER

@<TRIPOS>ATOM
      1 C         -10.6157  -10.0678   31.6801 C.2     1  UNL1        0.2672
      2 O         -11.7939  -10.1395   31.2371 O.2     1  UNL1       -0.2682
      3 N         -10.0060  -11.2377   32.2548 N.am    1  UNL1       -0.2685
      4 C          -6.6490   -7.5453   33.0200 C.3     1  UNL1        0.0521
      5 C          -7.9086   -7.5691   32.2040 C.ar    1  UNL1        0.0595
      6 N          -8.7032   -8.6687   32.2850 N.ar    1  UNL1       -0.2451
      7 C          -9.8559   -8.8063   31.5794 C.ar    1  UNL1        0.1343
      8 C         -10.2695   -7.7732   30.7296 C.ar    1  UNL1        0.0238
      9 C          -9.4815   -6.6222   30.6061 C.ar    1  UNL1        0.0028
     10 C          -9.8736   -5.5866   29.7432 C.ar    1  UNL1        0.0001
     11 C          -9.0822   -4.4440   29.6116 C.ar    1  UNL1        0.0000
     12 C          -7.8962   -4.3247   30.3371 C.ar    1  UNL1        0.0000
     13 C          -7.4922   -5.3465   31.2004 C.ar    1  UNL1        0.0012
     14 C          -8.2784   -6.5077   31.3467 C.ar    1  UNL1        0.0136
     15 C         -10.3883  -11.7341   33.5960 C.3     1  UNL1        0.1007
     16 C          -9.1832  -11.9997   34.5188 C.3     1  UNL1        0.0265
     17 C         -11.2337  -12.9896   33.4674 C.ar    1  UNL1        0.0234
     18 C         -12.1161  -13.1442   32.3803 C.ar    1  UNL1        0.0019
     19 C         -12.9276  -14.2767   32.2788 C.ar    1  UNL1        0.0295
     20 C         -12.8680  -15.2705   33.2573 C.ar    1  UNL1        0.1424
     21 F         -13.6584  -16.3675   33.1584 F       1  UNL1       -0.2041
     22 C         -11.9949  -15.1334   34.3388 C.ar    1  UNL1        0.0590
     23 C         -11.1807  -14.0012   34.4490 C.ar    1  UNL1        0.1399
     24 F         -10.3528  -13.8922   35.5188 F       1  UNL1       -0.2044
     25 C          -9.2483  -12.1205   31.3518 C.3     1  UNL1        0.1207
     26 C          -7.8436  -11.6107   31.1578 C.ar    1  UNL1       -0.0021
     27 C          -6.9782  -11.4860   32.2537 C.ar    1  UNL1       -0.0026
     28 C          -5.7133  -10.9202   32.0903 C.ar    1  UNL1       -0.0001
     29 C          -5.3002  -10.4698   30.8341 C.ar    1  UNL1        0.0064
     30 C          -6.1473  -10.5966   29.7189 C.ar    1  UNL1        0.0752
     31 C          -7.4162  -11.1794   29.8908 C.ar    1  UNL1        0.0038
     32 C          -5.7451  -10.0785   28.3892 C.2     1  UNL1        0.3380
     33 O          -6.3383   -9.0794   27.9023 O.2     1  UNL1       -0.2451
     34 O          -4.7246  -10.6731   27.6482 O.3     1  UNL1       -0.4771
     35 H          -4.2742  -11.5327   27.9339 H       1  UNL1        0.2954
@<TRIPOS>BOND
     1     4     5    1
     2     5     6   ar
     3     6     7   ar
     4     7     1    1
     5     1     2    2
     6     1     3   am
     7     3    25    1
     8    25    26    1
     9    26    27   ar
    10    27    28   ar
    11    28    29   ar
    12    29    30   ar
    13    30    32    1
    14    32    33    2
    15    32    34    1
    16    30    31   ar
    17     3    15    1
    18    15    16    1
    19    15    17    1
    20    17    18   ar
    21    18    19   ar
    22    19    20   ar
    23    20    21    1
    24    20    22   ar
    25    22    23   ar
    26    23    24    1
    27     7     8   ar
    28     8     9   ar
    29     9    10   ar
    30    10    11   ar
    31    11    12   ar
    32    12    13   ar
    33    13    14   ar
    34    14     5   ar
    35    31    26   ar
    36    23    17   ar
    37    14     9   ar
    38    34    35    1
@<TRIPOS>MOLECULE
*****
 35 38 0 0 0
SMALL
GASTEIGER

@<TRIPOS>ATOM
      1 C          -9.1459  -10.8665   32.5253 C.2     1  UNL1        0.2672
      2 O          -8.1430  -10.9951   33.2784 O.2     1  UNL1       -0.2682
      3 N          -9.1009   -9.9141   31.4475 N.am    1  UNL1       -0.2685
      4 C         -13.6447  -12.0338   31.0112 C.3     1  UNL1        0.0521
      5 C         -12.5323  -12.3094   31.9807 C.ar    1  UNL1        0.0595
      6 N         -11.4157  -11.5379   31.9101 N.ar    1  UNL1       -0.2451
      7 C         -10.3418  -11.7085   32.7246 C.ar    1  UNL1        0.1343
      8 C         -10.3697  -12.7148   33.6977 C.ar    1  UNL1        0.0238
      9 C         -11.4951  -13.5412   33.8058 C.ar    1  UNL1        0.0028
     10 C         -11.5293  -14.5668   34.7637 C.ar    1  UNL1        0.0001
     11 C         -12.6467  -15.3978   34.8641 C.ar    1  UNL1        0.0000
     12 C         -13.7365  -15.2138   34.0120 C.ar    1  UNL1        0.0000
     13 C         -13.7180  -14.1972   33.0535 C.ar    1  UNL1        0.0012
     14 C         -12.5986  -13.3480   32.9374 C.ar    1  UNL1        0.0136
     15 C          -9.2060   -8.4579   31.6922 C.3     1  UNL1        0.1007
     16 C         -10.2234   -7.7529   30.7745 C.3     1  UNL1        0.0265
     17 C          -7.8410   -7.8053   31.5565 C.ar    1  UNL1        0.0234
     18 C          -7.5093   -7.0866   30.3914 C.ar    1  UNL1        0.0019
     19 C          -6.2410   -6.5204   30.2421 C.ar    1  UNL1        0.0295
     20 C          -5.2885   -6.6607   31.2529 C.ar    1  UNL1        0.1424
     21 F          -4.0573   -6.1128   31.1050 F       1  UNL1       -0.2041
     22 C          -5.6041   -7.3667   32.4159 C.ar    1  UNL1        0.0590
     23 C          -6.8711   -7.9388   32.5720 C.ar    1  UNL1        0.1399
     24 F          -7.1416   -8.6296   33.7084 F       1  UNL1       -0.2044
     25 C          -8.6102  -10.3891   30.1428 C.3     1  UNL1        0.1207
     26 C          -7.1103  -10.5333   30.1542 C.ar    1  UNL1       -0.0021
     27 C          -6.4683  -11.1668   31.2275 C.ar    1  UNL1       -0.0026
     28 C          -5.0750  -11.2110   31.2867 C.ar    1  UNL1       -0.0001
     29 C          -4.3082  -10.6213   30.2790 C.ar    1  UNL1        0.0064
     30 C          -4.9315   -9.9917   29.1870 C.ar    1  UNL1        0.0752
     31 C          -6.3368   -9.9624   29.1296 C.ar    1  UNL1        0.0038
     32 C          -4.1339   -9.3171   28.1348 C.2     1  UNL1        0.3380
     33 O          -2.9665   -8.9203   28.3935 O.2     1  UNL1       -0.2451
     34 O          -4.6431   -9.0983   26.8554 O.3     1  UNL1       -0.4771
     35 H          -5.6027   -9.3026   26.6091 H       1  UNL1        0.2954
@<TRIPOS>BOND
     1     4     5    1
     2     5     6   ar
     3     6     7   ar
     4     7     1    1
     5     1     2    2
     6     1     3   am
     7     3    25    1
     8    25    26    1
     9    26    27   ar
    10    27    28   ar
    11    28    29   ar
    12    29    30   ar
    13    30    32    1
    14    32    33    2
    15    32    34    1
    16    30    31   ar
    17     3    15    1
    18    15    16    1
    19    15    17    1
    20    17    18   ar
    21    18    19   ar
    22    19    20   ar
    23    20    21    1
    24    20    22   ar
    25    22    23   ar
    26    23    24    1
    27     7     8   ar
    28     8     9   ar
    29     9    10   ar
    30    10    11   ar
    31    11    12   ar
    32    12    13   ar
    33    13    14   ar
    34    14     5   ar
    35    31    26   ar
    36    23    17   ar
    37    14     9   ar
    38    34    35    1
@<TRIPOS>MOLECULE
*****
 35 38 0 0 0
SMALL
GASTEIGER

@<TRIPOS>ATOM
      1 C          -9.2821  -11.0493   33.2139 C.2     1  UNL1        0.2672
      2 O          -9.3482  -11.4123   34.4195 O.2     1  UNL1       -0.2682
      3 N         -10.3318  -11.4275   32.3051 N.am    1  UNL1       -0.2685
      4 C          -4.7869  -10.9178   31.2984 C.3     1  UNL1        0.0521
      5 C          -5.9705  -10.1335   31.7854 C.ar    1  UNL1        0.0595
      6 N          -7.0284  -10.8196   32.2926 N.ar    1  UNL1       -0.2451
      7 C          -8.1576  -10.2155   32.7461 C.ar    1  UNL1        0.1343
      8 C          -8.2532   -8.8192   32.7081 C.ar    1  UNL1        0.0238
      9 C          -7.1924   -8.0673   32.1880 C.ar    1  UNL1        0.0028
     10 C          -7.2820   -6.6678   32.1256 C.ar    1  UNL1        0.0001
     11 C          -6.2290   -5.9190   31.5967 C.ar    1  UNL1        0.0000
     12 C          -5.0809   -6.5578   31.1265 C.ar    1  UNL1        0.0000
     13 C          -4.9761   -7.9500   31.1819 C.ar    1  UNL1        0.0012
     14 C          -6.0289   -8.7230   31.7128 C.ar    1  UNL1        0.0136
     15 C         -10.4549  -12.8106   31.7921 C.3     1  UNL1        0.1007
     16 C         -10.6516  -12.8840   30.2656 C.3     1  UNL1        0.0265
     17 C         -11.5894  -13.5315   32.4997 C.ar    1  UNL1        0.0234
     18 C         -11.3277  -14.3356   33.6262 C.ar    1  UNL1        0.0019
     19 C         -12.3600  -15.0354   34.2556 C.ar    1  UNL1        0.0295
     20 C         -13.6661  -14.9404   33.7724 C.ar    1  UNL1        0.1424
     21 F         -14.6661  -15.6225   34.3830 F       1  UNL1       -0.2041
     22 C         -13.9420  -14.1437   32.6590 C.ar    1  UNL1        0.0590
     23 C         -12.9134  -13.4417   32.0216 C.ar    1  UNL1        0.1399
     24 F         -13.2126  -12.6867   30.9343 F       1  UNL1       -0.2044
     25 C         -11.4715  -10.5055   32.1641 C.3     1  UNL1        0.1207
     26 C         -11.1730   -9.4358   31.1456 C.ar    1  UNL1       -0.0021
     27 C         -10.5739   -9.7701   29.9229 C.ar    1  UNL1       -0.0026
     28 C         -10.2060   -8.7693   29.0231 C.ar    1  UNL1       -0.0001
     29 C         -10.4280   -7.4258   29.3345 C.ar    1  UNL1        0.0064
     30 C         -11.0390   -7.0687   30.5497 C.ar    1  UNL1        0.0752
     31 C         -11.4175   -8.0852   31.4456 C.ar    1  UNL1        0.0038
     32 C         -11.2363   -5.6463   30.9184 C.2     1  UNL1        0.3380
     33 O         -11.7046   -5.3533   32.0507 O.2     1  UNL1       -0.2451
     34 O         -10.9237   -4.6104   30.0392 O.3     1  UNL1       -0.4771
     35 H         -10.6369   -4.7756   29.0832 H       1  UNL1        0.2954
@<TRIPOS>BOND
     1     4     5    1
     2     5     6   ar
     3     6     7   ar
     4     7     1    1
     5     1     2    2
     6     1     3   am
     7     3    25    1
     8    25    26    1
     9    26    27   ar
    10    27    28   ar
    11    28    29   ar
    12    29    30   ar
    13    30    32    1
    14    32    33    2
    15    32    34    1
    16    30    31   ar
    17     3    15    1
    18    15    16    1
    19    15    17    1
    20    17    18   ar
    21    18    19   ar
    22    19    20   ar
    23    20    21    1
    24    20    22   ar
    25    22    23   ar
    26    23    24    1
    27     7     8   ar
    28     8     9   ar
    29     9    10   ar
    30    10    11   ar
    31    11    12   ar
    32    12    13   ar
    33    13    14   ar
    34    14     5   ar
    35    31    26   ar
    36    23    17   ar
    37    14     9   ar
    38    34    35    1
