@<TRIPOS>MOLECULE
*****
 27 30 0 0 0
SMALL
GASTEIGER

@<TRIPOS>ATOM
      1 C         -22.1697  -10.9978  -11.0947 C.3     1  UNL1        0.0826
      2 C         -20.7873  -10.2922  -11.1614 C.3     1  UNL1        0.0309
      3 C         -20.8879   -8.7667  -11.3679 C.3     1  UNL1        0.0954
      4 N         -22.1508   -8.4098  -12.0248 N.am    1  UNL1       -0.2642
      5 C         -22.1802   -7.7713  -13.3129 C.2     1  UNL1        0.3039
      6 O         -23.0794   -6.9230  -13.5633 O.2     1  UNL1       -0.2526
      7 N         -21.2518   -8.1512  -14.3384 N.am    1  UNL1       -0.2901
      8 C         -23.4178   -8.7961  -11.3878 C.3     1  UNL1        0.0954
      9 C         -23.2413  -10.0529  -10.5146 C.3     1  UNL1        0.0309
     10 H         -20.4993   -8.8383  -14.1097 H       1  UNL1        0.1509
     11 C         -23.6534  -12.4823  -13.9737 C.ar    1  UNL1        0.1800
     12 N         -22.5045  -12.0260  -14.5124 N.ar    1  UNL1       -0.0606
     13 O         -21.8879  -11.4379  -13.5321 O.2     1  UNL1       -0.3374
     14 C         -22.6064  -11.5287  -12.4394 C.ar    1  UNL1        0.2359
     15 N         -23.7524  -12.2020  -12.6601 N.ar    1  UNL1       -0.1949
     16 C         -24.0345  -14.5265  -15.3697 C.3     1  UNL1        0.0081
     17 C         -24.6739  -13.2988  -14.7150 C.3     1  UNL1        0.0621
     18 C         -25.8105  -13.7061  -13.7747 C.3     1  UNL1        0.0081
     19 C         -21.4895   -7.7891  -15.7355 C.3     1  UNL1        0.0774
     20 C         -21.1418   -8.8960  -16.7236 C.3     1  UNL1        0.0259
     21 C         -22.6033   -8.5953  -16.3985 C.3     1  UNL1        0.0420
     22 C         -23.4274   -7.8615  -17.4421 C.ar    1  UNL1       -0.0208
     23 C         -23.7753   -6.5252  -17.1790 C.ar    1  UNL1       -0.0042
     24 C         -24.4976   -5.7781  -18.1135 C.ar    1  UNL1       -0.0003
     25 C         -24.8862   -6.3566  -19.3225 C.ar    1  UNL1       -0.0000
     26 C         -24.5529   -7.6835  -19.5992 C.ar    1  UNL1       -0.0003
     27 C         -23.8279   -8.4354  -18.6696 C.ar    1  UNL1       -0.0042
@<TRIPOS>BOND
     1    16    17    1
     2    17    18    1
     3    17    11    1
     4    11    12   ar
     5    12    13   ar
     6    13    14   ar
     7    14     1    1
     8     1     2    1
     9     2     3    1
    10     3     4    1
    11     4     5   am
    12     5     6    2
    13     5     7   am
    14     7    19    1
    15    19    20    1
    16    20    21    1
    17    21    22    1
    18    22    23   ar
    19    23    24   ar
    20    24    25   ar
    21    25    26   ar
    22    26    27   ar
    23     4     8    1
    24     8     9    1
    25    14    15   ar
    26    15    11   ar
    27     9     1    1
    28    21    19    1
    29    27    22   ar
    30     7    10    1
@<TRIPOS>MOLECULE
*****
 27 30 0 0 0
SMALL
GASTEIGER

@<TRIPOS>ATOM
      1 C         -24.1766  -10.2238  -10.6965 C.3     1  UNL1        0.0826
      2 C         -23.7603  -11.2332  -11.8016 C.3     1  UNL1        0.0309
      3 C         -22.3905  -10.9158  -12.4362 C.3     1  UNL1        0.0954
      4 N         -22.0721   -9.4889  -12.3072 N.am    1  UNL1       -0.2642
      5 C         -21.8935   -8.6460  -13.4585 C.2     1  UNL1        0.3039
      6 O         -21.0421   -7.7161  -13.4191 O.2     1  UNL1       -0.2526
      7 N         -22.7297   -8.7997  -14.6138 N.am    1  UNL1       -0.2901
      8 C         -22.0229   -8.8896  -10.9662 C.3     1  UNL1        0.0954
      9 C         -22.9366   -9.6470   -9.9841 C.3     1  UNL1        0.0309
     10 H         -23.4147   -9.5877  -14.6409 H       1  UNL1        0.1509
     11 C         -26.0793   -7.8102  -12.4987 C.ar    1  UNL1        0.1800
     12 N         -26.2091   -7.3230  -11.2481 N.ar    1  UNL1       -0.0606
     13 O         -25.5573   -8.1579  -10.4964 O.2     1  UNL1       -0.3374
     14 C         -25.0413   -9.1093  -11.2360 C.ar    1  UNL1        0.2359
     15 N         -25.3355   -8.9323  -12.5389 N.ar    1  UNL1       -0.1949
     16 C         -28.1316   -7.3019  -13.8413 C.3     1  UNL1        0.0081
     17 C         -26.6131   -7.1381  -13.7321 C.3     1  UNL1        0.0621
     18 C         -26.2170   -5.6600  -13.7430 C.3     1  UNL1        0.0081
     19 C         -22.8112   -7.7460  -15.6252 C.3     1  UNL1        0.0774
     20 C         -21.6574   -7.7608  -16.6206 C.3     1  UNL1        0.0259
     21 C         -23.0344   -8.2694  -17.0415 C.3     1  UNL1        0.0420
     22 C         -23.8692   -7.3884  -17.9544 C.ar    1  UNL1       -0.0208
     23 C         -24.2682   -7.9222  -19.1922 C.ar    1  UNL1       -0.0042
     24 C         -25.0714   -7.1815  -20.0636 C.ar    1  UNL1       -0.0003
     25 C         -25.4841   -5.8954  -19.7130 C.ar    1  UNL1       -0.0000
     26 C         -25.0943   -5.3477  -18.4897 C.ar    1  UNL1       -0.0003
     27 C         -24.2932   -6.0847  -17.6121 C.ar    1  UNL1       -0.0042
@<TRIPOS>BOND
     1    16    17    1
     2    17    18    1
     3    17    11    1
     4    11    12   ar
     5    12    13   ar
     6    13    14   ar
     7    14     1    1
     8     1     2    1
     9     2     3    1
    10     3     4    1
    11     4     5   am
    12     5     6    2
    13     5     7   am
    14     7    19    1
    15    19    20    1
    16    20    21    1
    17    21    22    1
    18    22    23   ar
    19    23    24   ar
    20    24    25   ar
    21    25    26   ar
    22    26    27   ar
    23     4     8    1
    24     8     9    1
    25    14    15   ar
    26    15    11   ar
    27     9     1    1
    28    21    19    1
    29    27    22   ar
    30     7    10    1
@<TRIPOS>MOLECULE
*****
 27 30 0 0 0
SMALL
GASTEIGER

@<TRIPOS>ATOM
      1 C         -22.7973  -13.8693  -14.7108 C.3     1  UNL1        0.0826
      2 C         -24.2729  -13.4122  -14.8750 C.3     1  UNL1        0.0309
      3 C         -24.4746  -12.3919  -16.0143 C.3     1  UNL1        0.0954
      4 N         -23.2338  -11.6556  -16.2830 N.am    1  UNL1       -0.2642
      5 C         -23.1473  -10.2304  -16.1129 C.2     1  UNL1        0.3039
      6 O         -22.4256   -9.5557  -16.8972 O.2     1  UNL1       -0.2526
      7 N         -23.8039   -9.5842  -15.0133 N.am    1  UNL1       -0.2901
      8 C         -22.0256  -12.4079  -16.6497 C.3     1  UNL1        0.0954
      9 C         -22.0569  -13.8318  -16.0628 C.3     1  UNL1        0.0309
     10 H         -24.4157  -10.1520  -14.3856 H       1  UNL1        0.1509
     11 C         -21.5019  -11.5659  -12.3212 C.ar    1  UNL1        0.1800
     12 N         -20.4592  -12.4158  -12.4151 N.ar    1  UNL1       -0.0606
     13 O         -20.8442  -13.3226  -13.2615 O.2     1  UNL1       -0.3374
     14 C         -22.0562  -13.0509  -13.6804 C.ar    1  UNL1        0.2359
     15 N         -22.5289  -11.9223  -13.1163 N.ar    1  UNL1       -0.1949
     16 C         -22.7015  -10.2554  -10.5559 C.3     1  UNL1        0.0081
     17 C         -21.4997  -10.3054  -11.5034 C.3     1  UNL1        0.0621
     18 C         -20.1846  -10.1775  -10.7313 C.3     1  UNL1        0.0081
     19 C         -23.4400   -8.2237  -14.6183 C.3     1  UNL1        0.0774
     20 C         -24.6298   -7.2777  -14.5092 C.3     1  UNL1        0.0259
     21 C         -23.9687   -7.8204  -13.2443 C.3     1  UNL1        0.0420
     22 C         -23.0891   -6.8779  -12.4414 C.ar    1  UNL1       -0.0208
     23 C         -21.6969   -7.0554  -12.5218 C.ar    1  UNL1       -0.0042
     24 C         -20.8274   -6.1987  -11.8413 C.ar    1  UNL1       -0.0003
     25 C         -21.3362   -5.1549  -11.0674 C.ar    1  UNL1       -0.0000
     26 C         -22.7160   -4.9658  -10.9729 C.ar    1  UNL1       -0.0003
     27 C         -23.5911   -5.8178  -11.6536 C.ar    1  UNL1       -0.0042
@<TRIPOS>BOND
     1    16    17    1
     2    17    18    1
     3    17    11    1
     4    11    12   ar
     5    12    13   ar
     6    13    14   ar
     7    14     1    1
     8     1     2    1
     9     2     3    1
    10     3     4    1
    11     4     5   am
    12     5     6    2
    13     5     7   am
    14     7    19    1
    15    19    20    1
    16    20    21    1
    17    21    22    1
    18    22    23   ar
    19    23    24   ar
    20    24    25   ar
    21    25    26   ar
    22    26    27   ar
    23     4     8    1
    24     8     9    1
    25    14    15   ar
    26    15    11   ar
    27     9     1    1
    28    21    19    1
    29    27    22   ar
    30     7    10    1
@<TRIPOS>MOLECULE
*****
 27 30 0 0 0
SMALL
GASTEIGER

@<TRIPOS>ATOM
      1 C         -21.7128   -8.8736  -16.2707 C.3     1  UNL1        0.0826
      2 C         -21.3664   -8.3541  -14.8482 C.3     1  UNL1        0.0309
      3 C         -22.2636   -8.9496  -13.7436 C.3     1  UNL1        0.0954
      4 N         -23.5562   -9.3759  -14.2926 N.am    1  UNL1       -0.2642
      5 C         -24.7944   -8.7889  -13.8568 C.2     1  UNL1        0.3039
      6 O         -25.8286   -9.5075  -13.7838 O.2     1  UNL1       -0.2526
      7 N         -24.8819   -7.3827  -13.5872 N.am    1  UNL1       -0.2901
      8 C         -23.5758  -10.3654  -15.3792 C.3     1  UNL1        0.0954
      9 C         -22.2795  -10.3064  -16.2093 C.3     1  UNL1        0.0309
     10 H         -24.0130   -6.8048  -13.6302 H       1  UNL1        0.1509
     11 C         -24.1139   -7.1913  -18.2952 C.ar    1  UNL1        0.1800
     12 N         -23.6060   -6.1430  -17.6158 N.ar    1  UNL1       -0.0606
     13 O         -22.7200   -6.6604  -16.8195 O.2     1  UNL1       -0.3374
     14 C         -22.6699   -7.9582  -16.9967 C.ar    1  UNL1        0.2359
     15 N         -23.5396   -8.3581  -17.9448 N.ar    1  UNL1       -0.1949
     16 C         -25.4565   -5.6148  -19.7040 C.3     1  UNL1        0.0081
     17 C         -25.1344   -7.0789  -19.3923 C.3     1  UNL1        0.0621
     18 C         -24.6496   -7.8141  -20.6438 C.3     1  UNL1        0.0081
     19 C         -26.1810   -6.7160  -13.5002 C.3     1  UNL1        0.0774
     20 C         -26.1469   -5.4053  -12.7235 C.3     1  UNL1        0.0259
     21 C         -26.2408   -5.3865  -14.2475 C.3     1  UNL1        0.0420
     22 C         -27.5787   -5.0325  -14.8731 C.ar    1  UNL1       -0.0208
     23 C         -27.5985   -4.0129  -15.8406 C.ar    1  UNL1       -0.0042
     24 C         -28.7880   -3.6639  -16.4859 C.ar    1  UNL1       -0.0003
     25 C         -29.9756   -4.3256  -16.1710 C.ar    1  UNL1       -0.0000
     26 C         -29.9755   -5.3380  -15.2100 C.ar    1  UNL1       -0.0003
     27 C         -28.7882   -5.6938  -14.5629 C.ar    1  UNL1       -0.0042
@<TRIPOS>BOND
     1    16    17    1
     2    17    18    1
     3    17    11    1
     4    11    12   ar
     5    12    13   ar
     6    13    14   ar
     7    14     1    1
     8     1     2    1
     9     2     3    1
    10     3     4    1
    11     4     5   am
    12     5     6    2
    13     5     7   am
    14     7    19    1
    15    19    20    1
    16    20    21    1
    17    21    22    1
    18    22    23   ar
    19    23    24   ar
    20    24    25   ar
    21    25    26   ar
    22    26    27   ar
    23     4     8    1
    24     8     9    1
    25    14    15   ar
    26    15    11   ar
    27     9     1    1
    28    21    19    1
    29    27    22   ar
    30     7    10    1
@<TRIPOS>MOLECULE
*****
 27 30 0 0 0
SMALL
GASTEIGER

@<TRIPOS>ATOM
      1 C         -21.6631   -7.0581  -11.5478 C.3     1  UNL1        0.0826
      2 C         -22.6834   -7.4453  -10.4422 C.3     1  UNL1        0.0309
      3 C         -22.4821   -8.8741   -9.8964 C.3     1  UNL1        0.0954
      4 N         -21.8137   -9.7239  -10.8889 N.am    1  UNL1       -0.2642
      5 C         -22.4490  -10.8922  -11.4358 C.2     1  UNL1        0.3039
      6 O         -21.7498  -11.9048  -11.7131 O.2     1  UNL1       -0.2526
      7 N         -23.8496  -10.8852  -11.7457 N.am    1  UNL1       -0.2901
      8 C         -20.4970   -9.3185  -11.4010 C.3     1  UNL1        0.0954
      9 C         -20.3219   -7.7893  -11.3380 C.3     1  UNL1        0.0309
     10 H         -24.4196  -10.0483  -11.4902 H       1  UNL1        0.1509
     11 C         -22.3606   -7.7844  -14.9654 C.ar    1  UNL1        0.1800
     12 N         -23.5827   -7.3869  -14.5573 N.ar    1  UNL1       -0.0606
     13 O         -23.4399   -7.1146  -13.2954 O.2     1  UNL1       -0.3374
     14 C         -22.1964   -7.3217  -12.9360 C.ar    1  UNL1        0.2359
     15 N         -21.4493   -7.7448  -13.9744 N.ar    1  UNL1       -0.1949
     16 C         -20.4972   -8.2614  -16.5695 C.3     1  UNL1        0.0081
     17 C         -22.0122   -8.1402  -16.3830 C.3     1  UNL1        0.0621
     18 C         -22.7222   -9.4320  -16.7944 C.3     1  UNL1        0.0081
     19 C         -24.4286  -11.9057  -12.6192 C.3     1  UNL1        0.0774
     20 C         -25.3443  -11.3413  -13.6987 C.3     1  UNL1        0.0259
     21 C         -23.9429  -11.8256  -14.0641 C.3     1  UNL1        0.0420
     22 C         -23.8171  -13.1482  -14.7999 C.ar    1  UNL1       -0.0208
     23 C         -22.5575  -13.7721  -14.8121 C.ar    1  UNL1       -0.0042
     24 C         -22.3800  -15.0102  -15.4356 C.ar    1  UNL1       -0.0003
     25 C         -23.4572  -15.6409  -16.0594 C.ar    1  UNL1       -0.0000
     26 C         -24.7144  -15.0343  -16.0605 C.ar    1  UNL1       -0.0003
     27 C         -24.8993  -13.7970  -15.4360 C.ar    1  UNL1       -0.0042
@<TRIPOS>BOND
     1    16    17    1
     2    17    18    1
     3    17    11    1
     4    11    12   ar
     5    12    13   ar
     6    13    14   ar
     7    14     1    1
     8     1     2    1
     9     2     3    1
    10     3     4    1
    11     4     5   am
    12     5     6    2
    13     5     7   am
    14     7    19    1
    15    19    20    1
    16    20    21    1
    17    21    22    1
    18    22    23   ar
    19    23    24   ar
    20    24    25   ar
    21    25    26   ar
    22    26    27   ar
    23     4     8    1
    24     8     9    1
    25    14    15   ar
    26    15    11   ar
    27     9     1    1
    28    21    19    1
    29    27    22   ar
    30     7    10    1
@<TRIPOS>MOLECULE
*****
 27 30 0 0 0
SMALL
GASTEIGER

@<TRIPOS>ATOM
      1 C         -23.1397   -6.6064  -11.5317 C.3     1  UNL1        0.0826
      2 C         -24.6603   -6.5426  -11.8435 C.3     1  UNL1        0.0309
      3 C         -25.4338   -7.7932  -11.3769 C.3     1  UNL1        0.0954
      4 N         -24.5452   -8.9585  -11.2971 N.am    1  UNL1       -0.2642
      5 C         -24.7537  -10.1265  -12.1094 C.2     1  UNL1        0.3039
      6 O         -24.4853  -11.2651  -11.6375 O.2     1  UNL1       -0.2526
      7 N         -25.1817  -10.0018  -13.4729 N.am    1  UNL1       -0.2901
      8 C         -23.3615   -8.8921  -10.4285 C.3     1  UNL1        0.0954
      9 C         -22.8736   -7.4403  -10.2624 C.3     1  UNL1        0.0309
     10 H         -25.4214   -9.0550  -13.8428 H       1  UNL1        0.1509
     11 C         -21.7625   -7.8694  -14.5653 C.ar    1  UNL1        0.1800
     12 N         -20.6861   -7.9726  -13.7596 N.ar    1  UNL1       -0.0606
     13 O         -21.0830   -7.5091  -12.6131 O.2     1  UNL1       -0.3374
     14 C         -22.3396   -7.1445  -12.6941 C.ar    1  UNL1        0.2359
     15 N         -22.8355   -7.3633  -13.9276 N.ar    1  UNL1       -0.1949
     16 C         -22.7821   -7.5169  -16.8256 C.3     1  UNL1        0.0081
     17 C         -21.8083   -8.3505  -15.9879 C.3     1  UNL1        0.0621
     18 C         -20.4049   -8.3343  -16.5977 C.3     1  UNL1        0.0081
     19 C         -25.0509  -11.1218  -14.4046 C.3     1  UNL1        0.0774
     20 C         -24.5906  -10.7102  -15.7978 C.3     1  UNL1        0.0259
     21 C         -23.6139  -11.3924  -14.8425 C.3     1  UNL1        0.0420
     22 C         -23.2593  -12.8454  -15.1063 C.ar    1  UNL1       -0.0208
     23 C         -24.2033  -13.8238  -14.7491 C.ar    1  UNL1       -0.0042
     24 C         -23.9595  -15.1768  -15.0005 C.ar    1  UNL1       -0.0003
     25 C         -22.7673  -15.5721  -15.6086 C.ar    1  UNL1       -0.0000
     26 C         -21.8167  -14.6147  -15.9666 C.ar    1  UNL1       -0.0003
     27 C         -22.0559  -13.2593  -15.7204 C.ar    1  UNL1       -0.0042
@<TRIPOS>BOND
     1    16    17    1
     2    17    18    1
     3    17    11    1
     4    11    12   ar
     5    12    13   ar
     6    13    14   ar
     7    14     1    1
     8     1     2    1
     9     2     3    1
    10     3     4    1
    11     4     5   am
    12     5     6    2
    13     5     7   am
    14     7    19    1
    15    19    20    1
    16    20    21    1
    17    21    22    1
    18    22    23   ar
    19    23    24   ar
    20    24    25   ar
    21    25    26   ar
    22    26    27   ar
    23     4     8    1
    24     8     9    1
    25    14    15   ar
    26    15    11   ar
    27     9     1    1
    28    21    19    1
    29    27    22   ar
    30     7    10    1
@<TRIPOS>MOLECULE
*****
 27 30 0 0 0
SMALL
GASTEIGER

@<TRIPOS>ATOM
      1 C         -22.8165  -13.2540  -16.7959 C.3     1  UNL1        0.0826
      2 C         -21.7790  -13.8402  -15.7993 C.3     1  UNL1        0.0309
      3 C         -22.3669  -14.1285  -14.4025 C.3     1  UNL1        0.0954
      4 N         -23.5361  -13.2807  -14.1418 N.am    1  UNL1       -0.2642
      5 C         -23.5559  -12.3291  -13.0639 C.2     1  UNL1        0.3039
      6 O         -24.6346  -12.1161  -12.4456 O.2     1  UNL1       -0.2526
      7 N         -22.3863  -11.5629  -12.7435 N.am    1  UNL1       -0.2901
      8 C         -24.6806  -13.3450  -15.0616 C.3     1  UNL1        0.0954
      9 C         -24.2356  -13.7650  -16.4753 C.3     1  UNL1        0.0309
     10 H         -21.4951  -11.7659  -13.2488 H       1  UNL1        0.1509
     11 C         -22.4054   -9.7376  -16.3964 C.ar    1  UNL1        0.1800
     12 N         -23.3341   -9.7544  -17.3739 N.ar    1  UNL1       -0.0606
     13 O         -23.5426  -11.0138  -17.6133 O.2     1  UNL1       -0.3374
     14 C         -22.7931  -11.7442  -16.8240 C.ar    1  UNL1        0.2359
     15 N         -22.0449  -10.9760  -16.0083 N.ar    1  UNL1       -0.1949
     16 C         -20.5651   -8.0393  -16.3521 C.3     1  UNL1        0.0081
     17 C         -21.8913   -8.4908  -15.7340 C.3     1  UNL1        0.0621
     18 C         -22.9406   -7.3795  -15.8107 C.3     1  UNL1        0.0081
     19 C         -22.4819  -10.3602  -11.9164 C.3     1  UNL1        0.0774
     20 C         -21.3101  -10.1796  -10.9590 C.3     1  UNL1        0.0259
     21 C         -21.4060   -9.3201  -12.2175 C.3     1  UNL1        0.0420
     22 C         -21.8190   -7.8675  -12.0567 C.ar    1  UNL1       -0.0208
     23 C         -23.1944   -7.5779  -12.0313 C.ar    1  UNL1       -0.0042
     24 C         -23.6450   -6.2681  -11.8456 C.ar    1  UNL1       -0.0003
     25 C         -22.7281   -5.2281  -11.6868 C.ar    1  UNL1       -0.0000
     26 C         -21.3585   -5.4964  -11.7131 C.ar    1  UNL1       -0.0003
     27 C         -20.9013   -6.8052  -11.8956 C.ar    1  UNL1       -0.0042
@<TRIPOS>BOND
     1    16    17    1
     2    17    18    1
     3    17    11    1
     4    11    12   ar
     5    12    13   ar
     6    13    14   ar
     7    14     1    1
     8     1     2    1
     9     2     3    1
    10     3     4    1
    11     4     5   am
    12     5     6    2
    13     5     7   am
    14     7    19    1
    15    19    20    1
    16    20    21    1
    17    21    22    1
    18    22    23   ar
    19    23    24   ar
    20    24    25   ar
    21    25    26   ar
    22    26    27   ar
    23     4     8    1
    24     8     9    1
    25    14    15   ar
    26    15    11   ar
    27     9     1    1
    28    21    19    1
    29    27    22   ar
    30     7    10    1
@<TRIPOS>MOLECULE
*****
 27 30 0 0 0
SMALL
GASTEIGER

@<TRIPOS>ATOM
      1 C         -20.3414   -8.1915  -10.0917 C.3     1  UNL1        0.0826
      2 C         -21.0245   -7.1353  -11.0034 C.3     1  UNL1        0.0309
      3 C         -22.5143   -6.9118  -10.6715 C.3     1  UNL1        0.0954
      4 N         -23.0890   -8.0956  -10.0218 N.am    1  UNL1       -0.2642
      5 C         -24.1672   -8.8376  -10.6173 C.2     1  UNL1        0.3039
      6 O         -25.0442   -9.3588   -9.8755 O.2     1  UNL1       -0.2526
      7 N         -24.2067   -9.0598  -12.0339 N.am    1  UNL1       -0.2901
      8 C         -22.4861   -8.5852   -8.7740 C.3     1  UNL1        0.0954
      9 C         -20.9929   -8.2146   -8.6944 C.3     1  UNL1        0.0309
     10 H         -23.4867   -8.6037  -12.6374 H       1  UNL1        0.1509
     11 C         -20.7858  -11.2290  -11.9002 C.ar    1  UNL1        0.1800
     12 N         -19.9548  -11.6558  -10.9278 N.ar    1  UNL1       -0.0606
     13 O         -19.7094  -10.5998  -10.2125 O.2     1  UNL1       -0.3374
     14 C         -20.3573   -9.5719  -10.7043 C.ar    1  UNL1        0.2359
     15 N         -21.0782   -9.9190  -11.7884 N.ar    1  UNL1       -0.1949
     16 C         -21.4064  -11.4475  -14.3168 C.3     1  UNL1        0.0081
     17 C         -21.4043  -12.1191  -12.9407 C.3     1  UNL1        0.0621
     18 C         -20.6770  -13.4647  -12.9864 C.3     1  UNL1        0.0081
     19 C         -25.0697  -10.0929  -12.6063 C.3     1  UNL1        0.0774
     20 C         -25.9546   -9.5931  -13.7419 C.3     1  UNL1        0.0259
     21 C         -24.7279  -10.4484  -14.0509 C.3     1  UNL1        0.0420
     22 C         -24.9532  -11.8955  -14.4530 C.ar    1  UNL1       -0.0208
     23 C         -24.6713  -12.2560  -15.7821 C.ar    1  UNL1       -0.0042
     24 C         -24.8174  -13.5786  -16.2095 C.ar    1  UNL1       -0.0003
     25 C         -25.2510  -14.5592  -15.3163 C.ar    1  UNL1       -0.0000
     26 C         -25.5392  -14.2187  -13.9936 C.ar    1  UNL1       -0.0003
     27 C         -25.3923  -12.8979  -13.5591 C.ar    1  UNL1       -0.0042
@<TRIPOS>BOND
     1    16    17    1
     2    17    18    1
     3    17    11    1
     4    11    12   ar
     5    12    13   ar
     6    13    14   ar
     7    14     1    1
     8     1     2    1
     9     2     3    1
    10     3     4    1
    11     4     5   am
    12     5     6    2
    13     5     7   am
    14     7    19    1
    15    19    20    1
    16    20    21    1
    17    21    22    1
    18    22    23   ar
    19    23    24   ar
    20    24    25   ar
    21    25    26   ar
    22    26    27   ar
    23     4     8    1
    24     8     9    1
    25    14    15   ar
    26    15    11   ar
    27     9     1    1
    28    21    19    1
    29    27    22   ar
    30     7    10    1
@<TRIPOS>MOLECULE
*****
 27 30 0 0 0
SMALL
GASTEIGER

@<TRIPOS>ATOM
      1 C         -22.0590  -13.3008  -16.1830 C.3     1  UNL1        0.0826
      2 C         -21.0654  -13.4141  -14.9942 C.3     1  UNL1        0.0309
      3 C         -21.7622  -13.5508  -13.6247 C.3     1  UNL1        0.0954
      4 N         -23.1097  -12.9706  -13.6630 N.am    1  UNL1       -0.2642
      5 C         -23.4782  -11.8566  -12.8318 C.2     1  UNL1        0.3039
      6 O         -24.6511  -11.7876  -12.3729 O.2     1  UNL1       -0.2526
      7 N         -22.5534  -10.7867  -12.5912 N.am    1  UNL1       -0.2901
      8 C         -24.0785  -13.4861  -14.6407 C.3     1  UNL1        0.0954
      9 C         -23.3665  -14.0602  -15.8803 C.3     1  UNL1        0.0309
     10 H         -21.5794  -10.8682  -12.9588 H       1  UNL1        0.1509
     11 C         -22.3756   -9.7783  -16.6140 C.ar    1  UNL1        0.1800
     12 N         -23.3291  -10.2044  -17.4672 N.ar    1  UNL1       -0.0606
     13 O         -23.2804  -11.5006  -17.4002 O.2     1  UNL1       -0.3374
     14 C         -22.3547  -11.8652  -16.5466 C.ar    1  UNL1        0.2359
     15 N         -21.7437  -10.7964  -15.9990 N.ar    1  UNL1       -0.1949
     16 C         -20.6227   -7.9932  -16.4993 C.3     1  UNL1        0.0081
     17 C         -22.1017   -8.3352  -16.2979 C.3     1  UNL1        0.0621
     18 C         -22.9964   -7.4284  -17.1458 C.3     1  UNL1        0.0081
     19 C         -23.0148   -9.5016  -12.0662 C.3     1  UNL1        0.0774
     20 C         -22.1803   -8.3141  -12.5307 C.3     1  UNL1        0.0259
     21 C         -23.5601   -8.5603  -13.1369 C.3     1  UNL1        0.0420
     22 C         -24.6977   -7.6500  -12.7082 C.ar    1  UNL1       -0.0208
     23 C         -25.8878   -8.2545  -12.2675 C.ar    1  UNL1       -0.0042
     24 C         -26.9601   -7.4777  -11.8203 C.ar    1  UNL1       -0.0003
     25 C         -26.8604   -6.0858  -11.8109 C.ar    1  UNL1       -0.0000
     26 C         -25.6876   -5.4681  -12.2486 C.ar    1  UNL1       -0.0003
     27 C         -24.6102   -6.2398  -12.6945 C.ar    1  UNL1       -0.0042
@<TRIPOS>BOND
     1    16    17    1
     2    17    18    1
     3    17    11    1
     4    11    12   ar
     5    12    13   ar
     6    13    14   ar
     7    14     1    1
     8     1     2    1
     9     2     3    1
    10     3     4    1
    11     4     5   am
    12     5     6    2
    13     5     7   am
    14     7    19    1
    15    19    20    1
    16    20    21    1
    17    21    22    1
    18    22    23   ar
    19    23    24   ar
    20    24    25   ar
    21    25    26   ar
    22    26    27   ar
    23     4     8    1
    24     8     9    1
    25    14    15   ar
    26    15    11   ar
    27     9     1    1
    28    21    19    1
    29    27    22   ar
    30     7    10    1
