@<TRIPOS>MOLECULE
*****
 79 81 0 0 0
SMALL
GASTEIGER

@<TRIPOS>ATOM
      1 C          -6.6745  -16.2888   24.9708 C.ar    1  UNL1        0.1694
      2 C          -5.5209  -15.4684   24.9719 C.ar    1  UNL1        0.1811
      3 C          -5.3650  -14.5083   25.9757 C.ar    1  UNL1        0.1358
      4 C          -6.3704  -14.2637   26.9000 C.ar    1  UNL1        0.2879
      5 O          -6.1777  -13.2950   27.7811 O.3     1  UNL1       -0.5464
      6 C          -7.0655  -12.9408   28.6987 C.ar    1  UNL1        0.2866
      7 C          -6.7369  -11.9225   29.6160 C.ar    1  UNL1        0.0989
      8 C          -7.6309  -11.6531   30.6749 C.ar    1  UNL1        0.1425
      9 C          -8.9630  -12.1241   30.6126 C.ar    1  UNL1        0.0501
     10 C          -9.2828  -13.1526   29.6922 C.ar    1  UNL1        0.1441
     11 O         -10.5414  -13.7658   29.7100 O.3     1  UNL1       -0.5053
     12 C          -8.3176  -13.5857   28.7492 C.ar    1  UNL1        0.1597
     13 C          -8.5671  -14.6270   27.8198 C.2     1  UNL1        0.2146
     14 O          -9.6974  -15.1791   27.8036 O.2     1  UNL1       -0.2859
     15 C          -7.5621  -15.0171   26.8925 C.ar    1  UNL1        0.1263
     16 C          -7.6823  -16.1003   25.9586 C.ar    1  UNL1        0.0304
     17 H         -11.2320  -13.6303   30.4342 H       1  UNL1        0.2922
     18 H          -5.3638  -12.8315   27.7544 H       1  UNL1        0.5634
     19 C          -5.4820  -11.0734   29.3809 C.3     1  UNL1        0.0337
     20 C          -4.5893  -10.9579   30.6203 C.3     1  UNL1        0.0051
     21 C          -5.8242   -9.6923   28.8020 C.3     1  UNL1        0.0051
     22 C          -7.1998  -17.1399   22.6362 C.3     1  UNL1        0.2526
     23 O          -6.8764  -17.3045   24.0124 O.3     1  UNL1       -0.4687
     24 O          -7.2078  -10.9039   31.7789 O.3     1  UNL1       -0.4659
     25 C          -7.9634   -9.8030   32.2878 C.3     1  UNL1        0.2893
     26 C          -7.0908   -8.6295   32.6103 C.2     1  UNL1        0.2673
     27 O          -7.3795   -7.8901   33.5895 O.2     1  UNL1       -0.2711
     28 N          -5.9349   -8.3554   31.8051 N.am    1  UNL1       -0.2953
     29 H          -5.5931   -9.1089   31.1659 H       1  UNL1        0.1499
     30 C          -5.2242   -7.0707   31.8433 C.3     1  UNL1        0.1485
     31 C          -4.3283   -6.9840   33.0550 C.2     1  UNL1        0.2372
     32 N          -4.5152   -7.8835   34.1479 N.am    1  UNL1       -0.3275
     33 O          -3.3828   -6.1509   33.0951 O.2     1  UNL1       -0.2736
     34 H          -3.8880   -7.8373   34.9814 H       1  UNL1        0.1450
     35 H          -5.2733   -8.6011   34.1247 H       1  UNL1        0.1450
     36 C          -6.2104   -5.8887   31.7868 C.3     1  UNL1        0.0325
     37 C          -6.6593   -5.5232   30.3621 C.3     1  UNL1        0.0450
     38 C          -8.1426   -5.8492   30.1571 C.3     1  UNL1        0.1740
     39 N          -8.3174   -7.2278   29.6990 N.pl3   1  UNL1       -0.2625
     40 H          -7.4739   -7.8134   29.4988 H       1  UNL1        0.2587
     41 C          -9.6102   -7.8031   29.4564 C.cat   1  UNL1        0.3769
     42 N          -9.7028   -8.8474   28.6964 N.pl3   1  UNL1       -0.1298
     43 N         -10.7932   -7.2409   30.0387 N.pl3   1  UNL1       -0.2892
     44 H         -10.6214   -9.2997   28.4905 H       1  UNL1        0.3062
     45 H         -10.7538   -6.4142   30.6733 H       1  UNL1        0.2546
     46 H         -11.7297   -7.6607   29.8453 H       1  UNL1        0.2546
     47 C         -10.0444  -11.5341   31.5125 C.3     1  UNL1        0.0578
     48 C         -10.4958  -12.4548   32.6248 C.2     1  UNL1       -0.0297
     49 C         -11.7693  -12.8720   32.8013 C.2     1  UNL1       -0.0475
     50 C         -12.0764  -13.7651   33.9748 C.3     1  UNL1        0.0260
     51 C         -12.8793  -12.4712   31.8588 C.3     1  UNL1        0.0260
     52 O          -4.5502  -15.6094   23.9645 O.3     1  UNL1       -0.4623
     53 C          -4.5192  -14.8870   22.7309 C.3     1  UNL1        0.2895
     54 C          -3.9701  -15.7436   21.6272 C.2     1  UNL1        0.2673
     55 O          -4.6727  -15.9651   20.6042 O.2     1  UNL1       -0.2711
     56 N          -2.6564  -16.3087   21.7399 N.am    1  UNL1       -0.2953
     57 H          -2.0495  -15.9756   22.5238 H       1  UNL1        0.1499
     58 C          -2.2782  -17.5355   21.0328 C.3     1  UNL1        0.1485
     59 C          -0.8012  -17.5048   20.7254 C.2     1  UNL1        0.2372
     60 N           0.0369  -18.6049   21.0810 N.am    1  UNL1       -0.3275
     61 O          -0.2979  -16.5026   20.1494 O.2     1  UNL1       -0.2736
     62 H           1.0583  -18.5777   20.8666 H       1  UNL1        0.1450
     63 H          -0.3546  -19.4456   21.5606 H       1  UNL1        0.1450
     64 C          -2.6520  -18.7588   21.8935 C.3     1  UNL1        0.0325
     65 C          -3.5991  -19.7289   21.1681 C.3     1  UNL1        0.0450
     66 C          -4.0281  -19.1928   19.7949 C.3     1  UNL1        0.1740
     67 N          -5.3723  -18.6117   19.8391 N.pl3   1  UNL1       -0.2625
     68 H          -5.4939  -17.5744   19.8732 H       1  UNL1        0.2587
     69 C          -6.5507  -19.4273   19.8700 C.cat   1  UNL1        0.3769
     70 N          -7.7050  -18.9183   19.5753 N.pl3   1  UNL1       -0.1298
     71 N          -6.4462  -20.8094   20.2202 N.pl3   1  UNL1       -0.2892
     72 H          -8.5769  -19.4929   19.5860 H       1  UNL1        0.3062
     73 H          -5.5206  -21.2227   20.4701 H       1  UNL1        0.2546
     74 H          -7.2933  -21.4191   20.2563 H       1  UNL1        0.2546
     75 C          -8.8373  -17.0985   26.0064 C.3     1  UNL1        0.0552
     76 C          -9.7456  -16.9875   24.8014 C.2     1  UNL1       -0.0298
     77 C         -10.4206  -18.0140   24.2394 C.2     1  UNL1       -0.0475
     78 C         -11.2742  -17.7307   23.0298 C.3     1  UNL1        0.0260
     79 C         -10.3361  -19.4221   24.7752 C.3     1  UNL1        0.0260
@<TRIPOS>BOND
     1    22    23    1
     2    23     1    1
     3     1     2   ar
     4     2    52    1
     5    52    53    1
     6    53    54    1
     7    54    55    2
     8    54    56   am
     9    56    58    1
    10    58    64    1
    11    64    65    1
    12    65    66    1
    13    66    67    1
    14    67    69    1
    15    69    70    2
    16    69    71    1
    17    58    59    1
    18    59    60   am
    19    59    61    2
    20     2     3   ar
    21     3     4   ar
    22     4     5    1
    23     5     6    1
    24     6     7   ar
    25     7    19    1
    26    19    20    1
    27    19    21    1
    28     7     8   ar
    29     8    24    1
    30    24    25    1
    31    25    26    1
    32    26    27    2
    33    26    28   am
    34    28    30    1
    35    30    36    1
    36    36    37    1
    37    37    38    1
    38    38    39    1
    39    39    41    1
    40    41    42    2
    41    41    43    1
    42    30    31    1
    43    31    32   am
    44    31    33    2
    45     8     9   ar
    46     9    47    1
    47    47    48    1
    48    48    49    2
    49    49    50    1
    50    49    51    1
    51     9    10   ar
    52    10    11    1
    53    10    12   ar
    54    12    13    1
    55    13    14    2
    56    13    15    1
    57    15    16   ar
    58    16    75    1
    59    75    76    1
    60    76    77    2
    61    77    78    1
    62    77    79    1
    63    16     1   ar
    64    15     4   ar
    65    12     6   ar
    66    56    57    1
    67    67    68    1
    68    70    72    1
    69    71    73    1
    70    71    74    1
    71    60    62    1
    72    60    63    1
    73    28    29    1
    74    39    40    1
    75    42    44    1
    76    43    45    1
    77    43    46    1
    78    32    34    1
    79    32    35    1
    80    11    17    1
    81     5    18    1
@<TRIPOS>MOLECULE
*****
 79 81 0 0 0
SMALL
GASTEIGER

@<TRIPOS>ATOM
      1 C          -6.6526  -16.2506   25.0348 C.ar    1  UNL1        0.1694
      2 C          -5.5046  -15.4235   24.9937 C.ar    1  UNL1        0.1811
      3 C          -5.3323  -14.4426   25.9743 C.ar    1  UNL1        0.1358
      4 C          -6.3184  -14.1854   26.9159 C.ar    1  UNL1        0.2879
      5 O          -6.1122  -13.1980   27.7730 O.3     1  UNL1       -0.5464
      6 C          -6.9816  -12.8307   28.7030 C.ar    1  UNL1        0.2866
      7 C          -6.6391  -11.7923   29.5922 C.ar    1  UNL1        0.0989
      8 C          -7.5110  -11.5069   30.6653 C.ar    1  UNL1        0.1425
      9 C          -8.8411  -11.9869   30.6423 C.ar    1  UNL1        0.0501
     10 C          -9.1748  -13.0355   29.7500 C.ar    1  UNL1        0.1441
     11 O         -10.4288  -13.6557   29.8083 O.3     1  UNL1       -0.5053
     12 C          -8.2281  -13.4819   28.7945 C.ar    1  UNL1        0.1597
     13 C          -8.4917  -14.5430   27.8918 C.2     1  UNL1        0.2146
     14 O          -9.6186  -15.1020   27.9120 O.2     1  UNL1       -0.2859
     15 C          -7.5052  -14.9457   26.9502 C.ar    1  UNL1        0.1263
     16 C          -7.6393  -16.0482   26.0410 C.ar    1  UNL1        0.0304
     17 H         -11.1040  -13.5097   30.5450 H       1  UNL1        0.2922
     18 H          -5.3021  -12.7304   27.7188 H       1  UNL1        0.5634
     19 C          -5.3952  -10.9406   29.3121 C.3     1  UNL1        0.0337
     20 C          -4.5445  -10.6843   30.5599 C.3     1  UNL1        0.0051
     21 C          -5.7473   -9.6308   28.5911 C.3     1  UNL1        0.0051
     22 C          -7.3273  -17.1573   22.7603 C.3     1  UNL1        0.2526
     23 O          -6.8695  -17.2865   24.1017 O.3     1  UNL1       -0.4687
     24 O          -7.0681  -10.7332   31.7443 O.3     1  UNL1       -0.4659
     25 C          -7.9731  -10.0650   32.6254 C.3     1  UNL1        0.2893
     26 C          -7.9118   -8.5775   32.4646 C.2     1  UNL1        0.2673
     27 O          -7.5263   -7.8629   33.4288 O.2     1  UNL1       -0.2711
     28 N          -8.2907   -7.9770   31.2175 N.am    1  UNL1       -0.2953
     29 H          -8.3700   -8.5968   30.3792 H       1  UNL1        0.1499
     30 C          -8.5703   -6.5420   31.0770 C.3     1  UNL1        0.1485
     31 C          -9.3176   -6.2595   29.7962 C.2     1  UNL1        0.2372
     32 N          -9.6150   -4.9135   29.4242 N.am    1  UNL1       -0.3275
     33 O          -9.6454   -7.2008   29.0242 O.2     1  UNL1       -0.2736
     34 H         -10.1180   -4.7125   28.5317 H       1  UNL1        0.1450
     35 H          -9.3278   -4.1157   30.0335 H       1  UNL1        0.1450
     36 C          -7.2756   -5.7124   31.1679 C.3     1  UNL1        0.0325
     37 C          -6.2067   -6.1166   30.1390 C.3     1  UNL1        0.0450
     38 C          -4.9066   -6.5303   30.8369 C.3     1  UNL1        0.1740
     39 N          -5.1848   -7.2072   32.1039 N.pl3   1  UNL1       -0.2625
     40 H          -6.0731   -7.7489   32.2126 H       1  UNL1        0.2587
     41 C          -4.3085   -7.1152   33.2375 C.cat   1  UNL1        0.3769
     42 N          -4.5318   -7.8652   34.2693 N.pl3   1  UNL1       -0.1298
     43 N          -3.1974   -6.2098   33.2444 N.pl3   1  UNL1       -0.2892
     44 H          -3.9226   -7.8325   35.1168 H       1  UNL1        0.3062
     45 H          -2.9744   -5.6072   32.4229 H       1  UNL1        0.2546
     46 H          -2.5740   -6.1428   34.0796 H       1  UNL1        0.2546
     47 C          -9.9059  -11.3853   31.5543 C.3     1  UNL1        0.0578
     48 C         -10.4343  -12.3387   32.6034 C.2     1  UNL1       -0.0297
     49 C         -11.7365  -12.6716   32.7461 C.2     1  UNL1       -0.0475
     50 C         -12.1197  -13.6119   33.8588 C.3     1  UNL1        0.0260
     51 C         -12.8048  -12.1320   31.8250 C.3     1  UNL1        0.0260
     52 O          -4.5557  -15.5790   23.9678 O.3     1  UNL1       -0.4623
     53 C          -4.6339  -14.9940   22.6654 C.3     1  UNL1        0.2895
     54 C          -4.0292  -15.9047   21.6366 C.2     1  UNL1        0.2673
     55 O          -4.7596  -16.3931   20.7327 O.2     1  UNL1       -0.2711
     56 N          -2.6304  -16.2191   21.6863 N.am    1  UNL1       -0.2953
     57 H          -2.0329  -15.6742   22.3496 H       1  UNL1        0.1499
     58 C          -2.0949  -17.4586   21.1164 C.3     1  UNL1        0.1485
     59 C          -0.6691  -17.2357   20.6758 C.2     1  UNL1        0.2372
     60 N           0.3342  -18.2165   20.9413 N.am    1  UNL1       -0.3275
     61 O          -0.3556  -16.1769   20.0672 O.2     1  UNL1       -0.2736
     62 H           1.3194  -18.0565   20.6348 H       1  UNL1        0.1450
     63 H           0.1013  -19.1006   21.4454 H       1  UNL1        0.1450
     64 C          -2.1945  -18.5878   22.1615 C.3     1  UNL1        0.0325
     65 C          -2.9817  -19.8048   21.6485 C.3     1  UNL1        0.0450
     66 C          -3.3272  -19.6780   20.1580 C.3     1  UNL1        0.1740
     67 N          -4.6264  -20.2822   19.8525 N.pl3   1  UNL1       -0.2625
     68 H          -4.6794  -21.1335   19.2487 H       1  UNL1        0.2587
     69 C          -5.8552  -19.7223   20.3330 C.cat   1  UNL1        0.3769
     70 N          -6.4922  -20.2867   21.3099 N.pl3   1  UNL1       -0.1298
     71 N          -6.3726  -18.5316   19.7343 N.pl3   1  UNL1       -0.2892
     72 H          -7.3865  -19.8952   21.6805 H       1  UNL1        0.3062
     73 H          -5.8702  -18.0787   18.9391 H       1  UNL1        0.2546
     74 H          -7.2702  -18.1117   20.0641 H       1  UNL1        0.2546
     75 C          -8.7866  -17.0520   26.1346 C.3     1  UNL1        0.0552
     76 C          -9.7357  -16.9542   24.9603 C.2     1  UNL1       -0.0298
     77 C         -10.4036  -17.9926   24.4117 C.2     1  UNL1       -0.0475
     78 C         -11.3023  -17.7211   23.2325 C.3     1  UNL1        0.0260
     79 C         -10.2680  -19.4021   24.9330 C.3     1  UNL1        0.0260
@<TRIPOS>BOND
     1    22    23    1
     2    23     1    1
     3     1     2   ar
     4     2    52    1
     5    52    53    1
     6    53    54    1
     7    54    55    2
     8    54    56   am
     9    56    58    1
    10    58    64    1
    11    64    65    1
    12    65    66    1
    13    66    67    1
    14    67    69    1
    15    69    70    2
    16    69    71    1
    17    58    59    1
    18    59    60   am
    19    59    61    2
    20     2     3   ar
    21     3     4   ar
    22     4     5    1
    23     5     6    1
    24     6     7   ar
    25     7    19    1
    26    19    20    1
    27    19    21    1
    28     7     8   ar
    29     8    24    1
    30    24    25    1
    31    25    26    1
    32    26    27    2
    33    26    28   am
    34    28    30    1
    35    30    36    1
    36    36    37    1
    37    37    38    1
    38    38    39    1
    39    39    41    1
    40    41    42    2
    41    41    43    1
    42    30    31    1
    43    31    32   am
    44    31    33    2
    45     8     9   ar
    46     9    47    1
    47    47    48    1
    48    48    49    2
    49    49    50    1
    50    49    51    1
    51     9    10   ar
    52    10    11    1
    53    10    12   ar
    54    12    13    1
    55    13    14    2
    56    13    15    1
    57    15    16   ar
    58    16    75    1
    59    75    76    1
    60    76    77    2
    61    77    78    1
    62    77    79    1
    63    16     1   ar
    64    15     4   ar
    65    12     6   ar
    66    56    57    1
    67    67    68    1
    68    70    72    1
    69    71    73    1
    70    71    74    1
    71    60    62    1
    72    60    63    1
    73    28    29    1
    74    39    40    1
    75    42    44    1
    76    43    45    1
    77    43    46    1
    78    32    34    1
    79    32    35    1
    80    11    17    1
    81     5    18    1
@<TRIPOS>MOLECULE
*****
 79 81 0 0 0
SMALL
GASTEIGER

@<TRIPOS>ATOM
      1 C          -6.6823  -16.3031   24.9222 C.ar    1  UNL1        0.1694
      2 C          -5.5081  -15.5128   24.9439 C.ar    1  UNL1        0.1811
      3 C          -5.3430  -14.5601   25.9532 C.ar    1  UNL1        0.1358
      4 C          -6.3559  -14.2923   26.8627 C.ar    1  UNL1        0.2879
      5 O          -6.1519  -13.3316   27.7499 O.3     1  UNL1       -0.5464
      6 C          -7.0445  -12.9572   28.6549 C.ar    1  UNL1        0.2866
      7 C          -6.7039  -11.9506   29.5806 C.ar    1  UNL1        0.0989
      8 C          -7.6070  -11.6612   30.6265 C.ar    1  UNL1        0.1425
      9 C          -8.9497  -12.0974   30.5421 C.ar    1  UNL1        0.0501
     10 C          -9.2816  -13.1145   29.6134 C.ar    1  UNL1        0.1441
     11 O         -10.5557  -13.6950   29.6097 O.3     1  UNL1       -0.5053
     12 C          -8.3134  -13.5697   28.6840 C.ar    1  UNL1        0.1597
     13 C          -8.5753  -14.6013   27.7472 C.2     1  UNL1        0.2146
     14 O          -9.7191  -15.1239   27.7118 O.2     1  UNL1       -0.2859
     15 C          -7.5665  -15.0146   26.8343 C.ar    1  UNL1        0.1263
     16 C          -7.7001  -16.0916   25.8950 C.ar    1  UNL1        0.0304
     17 H         -11.2538  -13.5438   30.3237 H       1  UNL1        0.2922
     18 H          -5.3260  -12.8892   27.7374 H       1  UNL1        0.5634
     19 C          -5.4240  -11.1334   29.3678 C.3     1  UNL1        0.0337
     20 C          -4.5606  -11.0231   30.6282 C.3     1  UNL1        0.0051
     21 C          -5.7191   -9.7523   28.7638 C.3     1  UNL1        0.0051
     22 C          -7.0765  -17.1383   22.5563 C.3     1  UNL1        0.2526
     23 O          -6.8956  -17.3104   23.9574 O.3     1  UNL1       -0.4687
     24 O          -7.1818  -10.9265   31.7394 O.3     1  UNL1       -0.4659
     25 C          -7.9346   -9.8300   32.2618 C.3     1  UNL1        0.2893
     26 C          -7.0590   -8.6629   32.5989 C.2     1  UNL1        0.2673
     27 O          -7.3101   -7.9720   33.6228 O.2     1  UNL1       -0.2711
     28 N          -5.9427   -8.3398   31.7568 N.am    1  UNL1       -0.2953
     29 H          -5.6232   -9.0596   31.0691 H       1  UNL1        0.1499
     30 C          -5.2426   -7.0504   31.8224 C.3     1  UNL1        0.1485
     31 C          -4.3136   -6.9993   33.0110 C.2     1  UNL1        0.2372
     32 N          -4.4943   -7.9061   34.0989 N.am    1  UNL1       -0.3275
     33 O          -3.3470   -6.1901   33.0352 O.2     1  UNL1       -0.2736
     34 H          -3.8448   -7.8847   34.9160 H       1  UNL1        0.1450
     35 H          -5.2703   -8.6047   34.0880 H       1  UNL1        0.1450
     36 C          -6.2403   -5.8769   31.8370 C.3     1  UNL1        0.0325
     37 C          -6.9586   -5.6570   30.4951 C.3     1  UNL1        0.0450
     38 C          -8.4707   -5.8538   30.6472 C.3     1  UNL1        0.1740
     39 N          -9.0435   -6.4599   29.4450 N.pl3   1  UNL1       -0.2625
     40 H          -8.9043   -5.9941   28.5187 H       1  UNL1        0.2587
     41 C          -9.8444   -7.6508   29.4869 C.cat   1  UNL1        0.3769
     42 N         -11.0689   -7.5727   29.9007 N.pl3   1  UNL1       -0.1298
     43 N          -9.3111   -8.9178   29.0808 N.pl3   1  UNL1       -0.2892
     44 H         -11.6889   -8.4117   29.9495 H       1  UNL1        0.3062
     45 H          -8.3368   -9.0142   28.7212 H       1  UNL1        0.2546
     46 H          -9.8993   -9.7794   29.1271 H       1  UNL1        0.2546
     47 C         -10.0293  -11.4823   31.4272 C.3     1  UNL1        0.0578
     48 C         -10.5232  -12.3952   32.5278 C.2     1  UNL1       -0.0297
     49 C         -11.8132  -12.7629   32.6935 C.2     1  UNL1       -0.0475
     50 C         -12.1623  -13.6546   33.8564 C.3     1  UNL1        0.0260
     51 C         -12.9011  -12.3091   31.7494 C.3     1  UNL1        0.0260
     52 O          -4.5259  -15.6759   23.9511 O.3     1  UNL1       -0.4623
     53 C          -3.7133  -16.8378   23.7666 C.3     1  UNL1        0.2895
     54 C          -3.3784  -17.0271   22.3155 C.2     1  UNL1        0.2673
     55 O          -3.7916  -16.1903   21.4680 O.2     1  UNL1       -0.2711
     56 N          -2.5970  -18.1553   21.8980 N.am    1  UNL1       -0.2953
     57 H          -2.1435  -18.7345   22.6414 H       1  UNL1        0.1499
     58 C          -2.6925  -18.7040   20.5423 C.3     1  UNL1        0.1485
     59 C          -4.1444  -18.8377   20.1540 C.2     1  UNL1        0.2372
     60 N          -4.7899  -17.8143   19.3956 N.am    1  UNL1       -0.3275
     61 O          -4.7976  -19.8595   20.4987 O.2     1  UNL1       -0.2736
     62 H          -5.7950  -17.9118   19.1305 H       1  UNL1        0.1450
     63 H          -4.2722  -16.9574   19.0996 H       1  UNL1        0.1450
     64 C          -1.9269  -17.7900   19.5647 C.3     1  UNL1        0.0325
     65 C          -0.6675  -17.1706   20.1926 C.3     1  UNL1        0.0450
     66 C           0.5796  -18.0316   19.9459 C.3     1  UNL1        0.1740
     67 N           1.0192  -18.7065   21.1696 N.pl3   1  UNL1       -0.2625
     68 H           1.3065  -18.1456   22.0032 H       1  UNL1        0.2587
     69 C           1.1026  -20.1346   21.2602 C.cat   1  UNL1        0.3769
     70 N           2.2390  -20.7343   21.0945 N.pl3   1  UNL1       -0.1298
     71 N          -0.0740  -20.8960   21.5425 N.pl3   1  UNL1       -0.2892
     72 H           2.3261  -21.7728   21.1603 H       1  UNL1        0.3062
     73 H          -0.9948  -20.4196   21.6655 H       1  UNL1        0.2546
     74 H          -0.0366  -21.9378   21.6050 H       1  UNL1        0.2546
     75 C          -8.8811  -17.0596   25.9216 C.3     1  UNL1        0.0552
     76 C          -9.7334  -16.9639   24.6751 C.2     1  UNL1       -0.0298
     77 C         -10.4109  -17.9903   24.1157 C.2     1  UNL1       -0.0475
     78 C         -11.2037  -17.7240   22.8617 C.3     1  UNL1        0.0260
     79 C         -10.3874  -19.3823   24.6978 C.3     1  UNL1        0.0260
@<TRIPOS>BOND
     1    22    23    1
     2    23     1    1
     3     1     2   ar
     4     2    52    1
     5    52    53    1
     6    53    54    1
     7    54    55    2
     8    54    56   am
     9    56    58    1
    10    58    64    1
    11    64    65    1
    12    65    66    1
    13    66    67    1
    14    67    69    1
    15    69    70    2
    16    69    71    1
    17    58    59    1
    18    59    60   am
    19    59    61    2
    20     2     3   ar
    21     3     4   ar
    22     4     5    1
    23     5     6    1
    24     6     7   ar
    25     7    19    1
    26    19    20    1
    27    19    21    1
    28     7     8   ar
    29     8    24    1
    30    24    25    1
    31    25    26    1
    32    26    27    2
    33    26    28   am
    34    28    30    1
    35    30    36    1
    36    36    37    1
    37    37    38    1
    38    38    39    1
    39    39    41    1
    40    41    42    2
    41    41    43    1
    42    30    31    1
    43    31    32   am
    44    31    33    2
    45     8     9   ar
    46     9    47    1
    47    47    48    1
    48    48    49    2
    49    49    50    1
    50    49    51    1
    51     9    10   ar
    52    10    11    1
    53    10    12   ar
    54    12    13    1
    55    13    14    2
    56    13    15    1
    57    15    16   ar
    58    16    75    1
    59    75    76    1
    60    76    77    2
    61    77    78    1
    62    77    79    1
    63    16     1   ar
    64    15     4   ar
    65    12     6   ar
    66    56    57    1
    67    67    68    1
    68    70    72    1
    69    71    73    1
    70    71    74    1
    71    60    62    1
    72    60    63    1
    73    28    29    1
    74    39    40    1
    75    42    44    1
    76    43    45    1
    77    43    46    1
    78    32    34    1
    79    32    35    1
    80    11    17    1
    81     5    18    1
@<TRIPOS>MOLECULE
*****
 79 81 0 0 0
SMALL
GASTEIGER

@<TRIPOS>ATOM
      1 C          -6.6185  -16.2507   25.0637 C.ar    1  UNL1        0.1694
      2 C          -5.5061  -15.3758   25.0328 C.ar    1  UNL1        0.1811
      3 C          -5.3823  -14.3913   26.0171 C.ar    1  UNL1        0.1358
      4 C          -6.3848  -14.1786   26.9524 C.ar    1  UNL1        0.2879
      5 O          -6.2265  -13.1859   27.8134 O.3     1  UNL1       -0.5464
      6 C          -7.1170  -12.8583   28.7382 C.ar    1  UNL1        0.2866
      7 C          -6.8249  -11.8089   29.6325 C.ar    1  UNL1        0.0989
      8 C          -7.7154  -11.5637   30.7001 C.ar    1  UNL1        0.1425
      9 C          -9.0239  -12.0993   30.6666 C.ar    1  UNL1        0.0501
     10 C          -9.3068  -13.1585   29.7692 C.ar    1  UNL1        0.1441
     11 O         -10.5338  -13.8312   29.8171 O.3     1  UNL1       -0.5053
     12 C          -8.3355  -13.5618   28.8192 C.ar    1  UNL1        0.1597
     13 C          -8.5478  -14.6305   27.9120 C.2     1  UNL1        0.2146
     14 O          -9.6502  -15.2366   27.9228 O.2     1  UNL1       -0.2859
     15 C          -7.5387  -14.9885   26.9764 C.ar    1  UNL1        0.1263
     16 C          -7.6198  -16.0931   26.0634 C.ar    1  UNL1        0.0304
     17 H         -11.2197  -13.7160   30.5493 H       1  UNL1        0.2922
     18 H          -5.4365  -12.6843   27.7661 H       1  UNL1        0.5634
     19 C          -5.6161  -10.9047   29.3634 C.3     1  UNL1        0.0337
     20 C          -4.7485  -10.6701   30.6037 C.3     1  UNL1        0.0051
     21 C          -6.0266   -9.5796   28.7037 C.3     1  UNL1        0.0051
     22 C          -7.2356  -17.1782   22.7813 C.3     1  UNL1        0.2526
     23 O          -6.7849  -17.2922   24.1264 O.3     1  UNL1       -0.4687
     24 O          -7.3131  -10.7750   31.7842 O.3     1  UNL1       -0.4659
     25 C          -8.1224   -9.7152   32.2978 C.3     1  UNL1        0.2893
     26 C          -8.2996   -8.6143   31.2982 C.2     1  UNL1        0.2673
     27 O          -9.0621   -8.7884   30.3097 O.2     1  UNL1       -0.2711
     28 N          -7.6027   -7.3719   31.4720 N.am    1  UNL1       -0.2953
     29 H          -7.1796   -7.1740   32.4074 H       1  UNL1        0.1499
     30 C          -7.4611   -6.3811   30.3970 C.3     1  UNL1        0.1485
     31 C          -6.0417   -5.8746   30.3120 C.2     1  UNL1        0.2372
     32 N          -4.9806   -6.6169   30.9132 N.am    1  UNL1       -0.3275
     33 O          -5.7743   -4.8201   29.6746 O.2     1  UNL1       -0.2736
     34 H          -3.9954   -6.2783   30.8436 H       1  UNL1        0.1450
     35 H          -5.1742   -7.5082   31.4214 H       1  UNL1        0.1450
     36 C          -8.4622   -5.2237   30.5732 C.3     1  UNL1        0.0325
     37 C          -9.6793   -5.3087   29.6372 C.3     1  UNL1        0.0450
     38 C         -10.9525   -5.6326   30.4262 C.3     1  UNL1        0.1740
     39 N         -11.2752   -7.0570   30.3380 N.pl3   1  UNL1       -0.2625
     40 H         -10.6764   -7.6840   29.7525 H       1  UNL1        0.2587
     41 C         -12.4227   -7.6304   30.9828 C.cat   1  UNL1        0.3769
     42 N         -13.4581   -6.8855   31.2062 N.pl3   1  UNL1       -0.1298
     43 N         -12.4384   -9.0071   31.3817 N.pl3   1  UNL1       -0.2892
     44 H         -14.3149   -7.2580   31.6729 H       1  UNL1        0.3062
     45 H         -11.6315   -9.6418   31.1978 H       1  UNL1        0.2546
     46 H         -13.2742   -9.4101   31.8610 H       1  UNL1        0.2546
     47 C         -10.1194  -11.5458   31.5725 C.3     1  UNL1        0.0578
     48 C         -10.5200  -12.4731   32.6987 C.2     1  UNL1       -0.0297
     49 C         -11.7759  -12.9292   32.9023 C.2     1  UNL1       -0.0475
     50 C         -12.0321  -13.8240   34.0867 C.3     1  UNL1        0.0260
     51 C         -12.9160  -12.5699   31.9791 C.3     1  UNL1        0.0260
     52 O          -4.5444  -15.4882   24.0132 O.3     1  UNL1       -0.4623
     53 C          -4.5875  -14.8189   22.7504 C.3     1  UNL1        0.2895
     54 C          -4.0913  -15.7179   21.6553 C.2     1  UNL1        0.2673
     55 O          -4.8415  -15.9767   20.6759 O.2     1  UNL1       -0.2711
     56 N          -2.7738  -16.2808   21.7272 N.am    1  UNL1       -0.2953
     57 H          -2.1304  -15.9193   22.4683 H       1  UNL1        0.1499
     58 C          -2.4296  -17.5343   21.0502 C.3     1  UNL1        0.1485
     59 C          -1.0944  -17.3857   20.3633 C.2     1  UNL1        0.2372
     60 N          -0.1903  -16.3505   20.7506 N.am    1  UNL1       -0.3275
     61 O          -0.7689  -18.1797   19.4395 O.2     1  UNL1       -0.2736
     62 H           0.7319  -16.2520   20.2711 H       1  UNL1        0.1450
     63 H          -0.4365  -15.6787   21.5109 H       1  UNL1        0.1450
     64 C          -2.4128  -18.6836   22.0778 C.3     1  UNL1        0.0325
     65 C          -3.6028  -19.6435   21.9156 C.3     1  UNL1        0.0450
     66 C          -3.7865  -20.0885   20.4577 C.3     1  UNL1        0.1740
     67 N          -5.1695  -20.4886   20.1865 N.pl3   1  UNL1       -0.2625
     68 H          -5.3991  -21.4922   20.0073 H       1  UNL1        0.2587
     69 C          -6.2372  -19.5342   20.1249 C.cat   1  UNL1        0.3769
     70 N          -7.4236  -19.8541   20.5354 N.pl3   1  UNL1       -0.1298
     71 N          -5.9857  -18.2225   19.6150 N.pl3   1  UNL1       -0.2892
     72 H          -8.2163  -19.1751   20.5051 H       1  UNL1        0.3062
     73 H          -5.0347  -17.9624   19.2717 H       1  UNL1        0.2546
     74 H          -6.7513  -17.5147   19.5542 H       1  UNL1        0.2546
     75 C          -8.7243  -17.1447   26.1463 C.3     1  UNL1        0.0552
     76 C          -9.6952  -17.0537   24.9895 C.2     1  UNL1       -0.0298
     77 C         -10.3510  -18.0996   24.4407 C.2     1  UNL1       -0.0475
     78 C         -11.2753  -17.8339   23.2800 C.3     1  UNL1        0.0260
     79 C         -10.1776  -19.5117   24.9436 C.3     1  UNL1        0.0260
@<TRIPOS>BOND
     1    22    23    1
     2    23     1    1
     3     1     2   ar
     4     2    52    1
     5    52    53    1
     6    53    54    1
     7    54    55    2
     8    54    56   am
     9    56    58    1
    10    58    64    1
    11    64    65    1
    12    65    66    1
    13    66    67    1
    14    67    69    1
    15    69    70    2
    16    69    71    1
    17    58    59    1
    18    59    60   am
    19    59    61    2
    20     2     3   ar
    21     3     4   ar
    22     4     5    1
    23     5     6    1
    24     6     7   ar
    25     7    19    1
    26    19    20    1
    27    19    21    1
    28     7     8   ar
    29     8    24    1
    30    24    25    1
    31    25    26    1
    32    26    27    2
    33    26    28   am
    34    28    30    1
    35    30    36    1
    36    36    37    1
    37    37    38    1
    38    38    39    1
    39    39    41    1
    40    41    42    2
    41    41    43    1
    42    30    31    1
    43    31    32   am
    44    31    33    2
    45     8     9   ar
    46     9    47    1
    47    47    48    1
    48    48    49    2
    49    49    50    1
    50    49    51    1
    51     9    10   ar
    52    10    11    1
    53    10    12   ar
    54    12    13    1
    55    13    14    2
    56    13    15    1
    57    15    16   ar
    58    16    75    1
    59    75    76    1
    60    76    77    2
    61    77    78    1
    62    77    79    1
    63    16     1   ar
    64    15     4   ar
    65    12     6   ar
    66    56    57    1
    67    67    68    1
    68    70    72    1
    69    71    73    1
    70    71    74    1
    71    60    62    1
    72    60    63    1
    73    28    29    1
    74    39    40    1
    75    42    44    1
    76    43    45    1
    77    43    46    1
    78    32    34    1
    79    32    35    1
    80    11    17    1
    81     5    18    1
@<TRIPOS>MOLECULE
*****
 79 81 0 0 0
SMALL
GASTEIGER

@<TRIPOS>ATOM
      1 C          -6.5722  -16.2576   25.0327 C.ar    1  UNL1        0.1694
      2 C          -5.3990  -15.4664   25.0691 C.ar    1  UNL1        0.1811
      3 C          -5.2523  -14.5059   26.0739 C.ar    1  UNL1        0.1358
      4 C          -6.2813  -14.2320   26.9632 C.ar    1  UNL1        0.2879
      5 O          -6.0936  -13.2644   27.8467 O.3     1  UNL1       -0.5464
      6 C          -7.0022  -12.8837   28.7329 C.ar    1  UNL1        0.2866
      7 C          -6.6786  -11.8699   29.6568 C.ar    1  UNL1        0.0989
      8 C          -7.6002  -11.5733   30.6843 C.ar    1  UNL1        0.1425
      9 C          -8.9410  -12.0110   30.5795 C.ar    1  UNL1        0.0501
     10 C          -9.2558  -13.0353   29.6528 C.ar    1  UNL1        0.1441
     11 O         -10.5294  -13.6167   29.6310 O.3     1  UNL1       -0.5053
     12 C          -8.2711  -13.4969   28.7441 C.ar    1  UNL1        0.1597
     13 C          -8.5158  -14.5358   27.8108 C.2     1  UNL1        0.2146
     14 O          -9.6585  -15.0594   27.7591 O.2     1  UNL1       -0.2859
     15 C          -7.4908  -14.9552   26.9190 C.ar    1  UNL1        0.1263
     16 C          -7.6072  -16.0394   25.9856 C.ar    1  UNL1        0.0304
     17 H         -11.2401  -13.4606   30.3313 H       1  UNL1        0.2922
     18 H          -5.2678  -12.8215   27.8453 H       1  UNL1        0.5634
     19 C          -5.3956  -11.0535   29.4604 C.3     1  UNL1        0.0337
     20 C          -4.5858  -10.8808   30.7490 C.3     1  UNL1        0.0051
     21 C          -5.6731   -9.7028   28.7837 C.3     1  UNL1        0.0051
     22 C          -7.0484  -17.1060   22.6866 C.3     1  UNL1        0.2526
     23 O          -6.7678  -17.2723   24.0719 O.3     1  UNL1       -0.4687
     24 O          -7.1952  -10.8299   31.7989 O.3     1  UNL1       -0.4659
     25 C          -8.1137  -10.0579   32.5751 C.3     1  UNL1        0.2893
     26 C          -8.0232   -8.5976   32.2564 C.2     1  UNL1        0.2673
     27 O          -7.6417   -7.7893   33.1453 O.2     1  UNL1       -0.2711
     28 N          -8.3699   -8.1292   30.9449 N.am    1  UNL1       -0.2953
     29 H          -8.4457   -8.8345   30.1768 H       1  UNL1        0.1499
     30 C          -8.6216   -6.7135   30.6456 C.3     1  UNL1        0.1485
     31 C          -9.8686   -6.5506   29.8108 C.2     1  UNL1        0.2372
     32 N         -10.8080   -5.5216   30.1224 N.am    1  UNL1       -0.3275
     33 O         -10.0702   -7.2885   28.8085 O.2     1  UNL1       -0.2736
     34 H         -11.6642   -5.3955   29.5383 H       1  UNL1        0.1450
     35 H         -10.6479   -4.8798   30.9302 H       1  UNL1        0.1450
     36 C          -7.4009   -6.0639   29.9667 C.3     1  UNL1        0.0325
     37 C          -6.2933   -5.6483   30.9490 C.3     1  UNL1        0.0450
     38 C          -5.0744   -6.5678   30.8177 C.3     1  UNL1        0.1740
     39 N          -5.0125   -7.5174   31.9292 N.pl3   1  UNL1       -0.2625
     40 H          -5.5041   -8.4372   31.8470 H       1  UNL1        0.2587
     41 C          -4.3451   -7.2180   33.1646 C.cat   1  UNL1        0.3769
     42 N          -4.7116   -7.8324   34.2440 N.pl3   1  UNL1       -0.1298
     43 N          -3.2860   -6.2538   33.2206 N.pl3   1  UNL1       -0.2892
     44 H          -4.2564   -7.6470   35.1654 H       1  UNL1        0.3062
     45 H          -2.9499   -5.7565   32.3677 H       1  UNL1        0.2546
     46 H          -2.8160   -6.0353   34.1273 H       1  UNL1        0.2546
     47 C         -10.0364  -11.3899   31.4406 C.3     1  UNL1        0.0578
     48 C         -11.2128  -12.3044   31.7021 C.2     1  UNL1       -0.0297
     49 C         -11.4229  -12.9657   32.8621 C.2     1  UNL1       -0.0475
     50 C         -12.6245  -13.8682   32.9669 C.3     1  UNL1        0.0260
     51 C         -10.4939  -12.8210   34.0440 C.3     1  UNL1        0.0260
     52 O          -4.3993  -15.6363   24.0951 O.3     1  UNL1       -0.4623
     53 C          -4.4427  -15.1274   22.7596 C.3     1  UNL1        0.2895
     54 C          -3.6397  -15.9947   21.8341 C.2     1  UNL1        0.2673
     55 O          -3.8557  -15.9464   20.5931 O.2     1  UNL1       -0.2711
     56 N          -2.6368  -16.8748   22.3610 N.am    1  UNL1       -0.2953
     57 H          -2.3802  -16.7712   23.3695 H       1  UNL1        0.1499
     58 C          -2.2258  -18.0912   21.6543 C.3     1  UNL1        0.1485
     59 C          -3.4388  -18.9419   21.3682 C.2     1  UNL1        0.2372
     60 N          -3.8029  -19.2577   20.0240 N.am    1  UNL1       -0.3275
     61 O          -4.1398  -19.3806   22.3199 O.2     1  UNL1       -0.2736
     62 H          -4.6438  -19.8460   19.8320 H       1  UNL1        0.1450
     63 H          -3.2407  -18.9051   19.2181 H       1  UNL1        0.1450
     64 C          -1.4864  -17.7053   20.3576 C.3     1  UNL1        0.0325
     65 C          -0.0348  -18.2114   20.3280 C.3     1  UNL1        0.0450
     66 C           0.1410  -19.4986   21.1462 C.3     1  UNL1        0.1740
     67 N           1.4712  -20.0817   20.9544 N.pl3   1  UNL1       -0.2625
     68 H           2.3029  -19.4609   20.8325 H       1  UNL1        0.2587
     69 C           1.6767  -21.4990   20.8946 C.cat   1  UNL1        0.3769
     70 N           2.4738  -22.0065   20.0083 N.pl3   1  UNL1       -0.1298
     71 N           1.0035  -22.3519   21.8238 N.pl3   1  UNL1       -0.2892
     72 H           2.6434  -23.0351   19.9478 H       1  UNL1        0.3062
     73 H           0.3510  -21.9501   22.5328 H       1  UNL1        0.2546
     74 H           1.1333  -23.3877   21.7924 H       1  UNL1        0.2546
     75 C          -8.7880  -17.0081   25.9987 C.3     1  UNL1        0.0552
     76 C          -9.6744  -16.8531   24.7824 C.2     1  UNL1       -0.0298
     77 C         -10.3868  -17.8470   24.2078 C.2     1  UNL1       -0.0475
     78 C         -11.2109  -17.5223   22.9882 C.3     1  UNL1        0.0260
     79 C         -10.3719  -19.2590   24.7395 C.3     1  UNL1        0.0260
@<TRIPOS>BOND
     1    22    23    1
     2    23     1    1
     3     1     2   ar
     4     2    52    1
     5    52    53    1
     6    53    54    1
     7    54    55    2
     8    54    56   am
     9    56    58    1
    10    58    64    1
    11    64    65    1
    12    65    66    1
    13    66    67    1
    14    67    69    1
    15    69    70    2
    16    69    71    1
    17    58    59    1
    18    59    60   am
    19    59    61    2
    20     2     3   ar
    21     3     4   ar
    22     4     5    1
    23     5     6    1
    24     6     7   ar
    25     7    19    1
    26    19    20    1
    27    19    21    1
    28     7     8   ar
    29     8    24    1
    30    24    25    1
    31    25    26    1
    32    26    27    2
    33    26    28   am
    34    28    30    1
    35    30    36    1
    36    36    37    1
    37    37    38    1
    38    38    39    1
    39    39    41    1
    40    41    42    2
    41    41    43    1
    42    30    31    1
    43    31    32   am
    44    31    33    2
    45     8     9   ar
    46     9    47    1
    47    47    48    1
    48    48    49    2
    49    49    50    1
    50    49    51    1
    51     9    10   ar
    52    10    11    1
    53    10    12   ar
    54    12    13    1
    55    13    14    2
    56    13    15    1
    57    15    16   ar
    58    16    75    1
    59    75    76    1
    60    76    77    2
    61    77    78    1
    62    77    79    1
    63    16     1   ar
    64    15     4   ar
    65    12     6   ar
    66    56    57    1
    67    67    68    1
    68    70    72    1
    69    71    73    1
    70    71    74    1
    71    60    62    1
    72    60    63    1
    73    28    29    1
    74    39    40    1
    75    42    44    1
    76    43    45    1
    77    43    46    1
    78    32    34    1
    79    32    35    1
    80    11    17    1
    81     5    18    1
@<TRIPOS>MOLECULE
*****
 79 81 0 0 0
SMALL
GASTEIGER

@<TRIPOS>ATOM
      1 C          -7.8706  -11.1457   30.6871 C.ar    1  UNL1        0.1694
      2 C          -6.5791  -11.0041   30.1251 C.ar    1  UNL1        0.1811
      3 C          -6.1971  -11.8368   29.0695 C.ar    1  UNL1        0.1358
      4 C          -7.0117  -12.8747   28.6406 C.ar    1  UNL1        0.2879
      5 O          -6.5555  -13.6618   27.6792 O.3     1  UNL1       -0.5464
      6 C          -7.2184  -14.7028   27.1969 C.ar    1  UNL1        0.2866
      7 C          -6.6552  -15.4471   26.1410 C.ar    1  UNL1        0.0989
      8 C          -7.4312  -16.4626   25.5413 C.ar    1  UNL1        0.1425
      9 C          -8.5777  -16.9602   26.2033 C.ar    1  UNL1        0.0501
     10 C          -9.1411  -16.2020   27.2592 C.ar    1  UNL1        0.1441
     11 O         -10.3663  -16.5669   27.8304 O.3     1  UNL1       -0.5053
     12 C          -8.4729  -15.0478   27.7386 C.ar    1  UNL1        0.1597
     13 C          -8.9968  -14.2331   28.7740 C.2     1  UNL1        0.2146
     14 O         -10.0863  -14.5523   29.3161 O.2     1  UNL1       -0.2859
     15 C          -8.2799  -13.0884   29.2186 C.ar    1  UNL1        0.1263
     16 C          -8.7480  -12.1588   30.2069 C.ar    1  UNL1        0.0304
     17 H         -10.9806  -17.2767   27.4581 H       1  UNL1        0.2922
     18 H          -5.7123  -13.4713   27.3176 H       1  UNL1        0.5634
     19 C          -5.1930  -15.2069   25.7464 C.3     1  UNL1        0.0337
     20 C          -5.0197  -14.8213   24.2742 C.3     1  UNL1        0.0051
     21 C          -4.2937  -16.3921   26.1285 C.3     1  UNL1        0.0051
     22 C          -8.0190  -10.4010   33.1107 C.3     1  UNL1        0.2526
     23 O          -8.3362  -10.3124   31.7261 O.3     1  UNL1       -0.4687
     24 O          -7.0581  -16.9927   24.3008 O.3     1  UNL1       -0.4659
     25 C          -7.6597  -16.5653   23.0772 C.3     1  UNL1        0.2893
     26 C          -7.1467  -17.3403   21.9031 C.2     1  UNL1        0.2673
     27 O          -7.9067  -18.1575   21.3170 O.2     1  UNL1       -0.2711
     28 N          -5.7974  -17.1478   21.4537 N.am    1  UNL1       -0.2953
     29 H          -5.2815  -16.3061   21.7982 H       1  UNL1        0.1499
     30 C          -5.1213  -18.0792   20.5412 C.3     1  UNL1        0.1485
     31 C          -4.9611  -19.4388   21.1772 C.2     1  UNL1        0.2372
     32 N          -5.8833  -20.4846   20.8703 N.am    1  UNL1       -0.3275
     33 O          -3.9911  -19.6765   21.9467 O.2     1  UNL1       -0.2736
     34 H          -5.7674  -21.4309   21.2958 H       1  UNL1        0.1450
     35 H          -6.6778  -20.3196   20.2131 H       1  UNL1        0.1450
     36 C          -3.7671  -17.5136   20.0734 C.3     1  UNL1        0.0325
     37 C          -3.1153  -16.5520   21.0811 C.3     1  UNL1        0.0450
     38 C          -1.6231  -16.8610   21.2430 C.3     1  UNL1        0.1740
     39 N          -1.4190  -18.0116   22.1235 N.pl3   1  UNL1       -0.2625
     40 H          -1.7464  -17.9634   23.1160 H       1  UNL1        0.2587
     41 C          -0.7324  -19.1983   21.6973 C.cat   1  UNL1        0.3769
     42 N           0.5622  -19.2003   21.6653 N.pl3   1  UNL1       -0.1298
     43 N          -1.4546  -20.3735   21.3077 N.pl3   1  UNL1       -0.2892
     44 H           1.1048  -20.0393   21.3615 H       1  UNL1        0.3062
     45 H          -2.4961  -20.4151   21.3423 H       1  UNL1        0.2546
     46 H          -0.9446  -21.2268   20.9878 H       1  UNL1        0.2546
     47 C          -9.1981  -18.2937   25.7982 C.3     1  UNL1        0.0578
     48 C         -10.2999  -18.1774   24.7680 C.2     1  UNL1       -0.0297
     49 C         -10.4827  -19.0413   23.7447 C.2     1  UNL1       -0.0475
     50 C         -11.6066  -18.7802   22.7763 C.3     1  UNL1        0.0260
     51 C          -9.5990  -20.2509   23.5524 C.3     1  UNL1        0.0260
     52 O          -5.6860  -10.0450   30.6344 O.3     1  UNL1       -0.4623
     53 C          -5.1682   -8.9237   29.9140 C.3     1  UNL1        0.2895
     54 C          -5.9336   -7.6767   30.2500 C.2     1  UNL1        0.2673
     55 O          -5.3076   -6.6104   30.4956 O.2     1  UNL1       -0.2711
     56 N          -7.3672   -7.7018   30.2948 N.am    1  UNL1       -0.2953
     57 H          -7.8500   -8.5562   29.9334 H       1  UNL1        0.1499
     58 C          -8.1327   -6.7569   31.1128 C.3     1  UNL1        0.1485
     59 C          -7.4332   -6.5525   32.4341 C.2     1  UNL1        0.2372
     60 N          -6.6672   -5.3716   32.6745 N.am    1  UNL1       -0.3275
     61 O          -7.5230   -7.4280   33.3369 O.2     1  UNL1       -0.2736
     62 H          -6.1846   -5.2360   33.5904 H       1  UNL1        0.1450
     63 H          -6.5751   -4.6326   31.9428 H       1  UNL1        0.1450
     64 C          -8.2936   -5.4289   30.3461 C.3     1  UNL1        0.0325
     65 C          -9.6722   -5.2906   29.6796 C.3     1  UNL1        0.0450
     66 C         -10.7773   -5.9700   30.5008 C.3     1  UNL1        0.1740
     67 N         -11.3730   -7.0952   29.7759 N.pl3   1  UNL1       -0.2625
     68 H         -12.2159   -6.9452   29.1767 H       1  UNL1        0.2587
     69 C         -10.8537   -8.4269   29.8830 C.cat   1  UNL1        0.3769
     70 N         -10.8346   -9.0302   31.0293 N.pl3   1  UNL1       -0.1298
     71 N         -10.3631   -9.0914   28.7161 N.pl3   1  UNL1       -0.2892
     72 H         -10.4658  -10.0017   31.1319 H       1  UNL1        0.3062
     73 H         -10.3649   -8.6063   27.7916 H       1  UNL1        0.2546
     74 H          -9.9733  -10.0586   28.7736 H       1  UNL1        0.2546
     75 C         -10.1787  -12.1828   30.7411 C.3     1  UNL1        0.0552
     76 C         -10.2697  -12.8030   32.1181 C.2     1  UNL1       -0.0298
     77 C         -11.4194  -13.1035   32.7610 C.2     1  UNL1       -0.0475
     78 C         -11.3304  -13.7071   34.1393 C.3     1  UNL1        0.0260
     79 C         -12.7745  -12.8445   32.1499 C.3     1  UNL1        0.0260
@<TRIPOS>BOND
     1    22    23    1
     2    23     1    1
     3     1     2   ar
     4     2    52    1
     5    52    53    1
     6    53    54    1
     7    54    55    2
     8    54    56   am
     9    56    58    1
    10    58    64    1
    11    64    65    1
    12    65    66    1
    13    66    67    1
    14    67    69    1
    15    69    70    2
    16    69    71    1
    17    58    59    1
    18    59    60   am
    19    59    61    2
    20     2     3   ar
    21     3     4   ar
    22     4     5    1
    23     5     6    1
    24     6     7   ar
    25     7    19    1
    26    19    20    1
    27    19    21    1
    28     7     8   ar
    29     8    24    1
    30    24    25    1
    31    25    26    1
    32    26    27    2
    33    26    28   am
    34    28    30    1
    35    30    36    1
    36    36    37    1
    37    37    38    1
    38    38    39    1
    39    39    41    1
    40    41    42    2
    41    41    43    1
    42    30    31    1
    43    31    32   am
    44    31    33    2
    45     8     9   ar
    46     9    47    1
    47    47    48    1
    48    48    49    2
    49    49    50    1
    50    49    51    1
    51     9    10   ar
    52    10    11    1
    53    10    12   ar
    54    12    13    1
    55    13    14    2
    56    13    15    1
    57    15    16   ar
    58    16    75    1
    59    75    76    1
    60    76    77    2
    61    77    78    1
    62    77    79    1
    63    16     1   ar
    64    15     4   ar
    65    12     6   ar
    66    56    57    1
    67    67    68    1
    68    70    72    1
    69    71    73    1
    70    71    74    1
    71    60    62    1
    72    60    63    1
    73    28    29    1
    74    39    40    1
    75    42    44    1
    76    43    45    1
    77    43    46    1
    78    32    34    1
    79    32    35    1
    80    11    17    1
    81     5    18    1
@<TRIPOS>MOLECULE
*****
 79 81 0 0 0
SMALL
GASTEIGER

@<TRIPOS>ATOM
      1 C          -7.9728  -11.1953   30.7028 C.ar    1  UNL1        0.1694
      2 C          -6.6818  -11.0361   30.1443 C.ar    1  UNL1        0.1811
      3 C          -6.2855  -11.8638   29.0901 C.ar    1  UNL1        0.1358
      4 C          -7.0847  -12.9129   28.6593 C.ar    1  UNL1        0.2879
      5 O          -6.6150  -13.6940   27.6994 O.3     1  UNL1       -0.5464
      6 C          -7.2623  -14.7441   27.2157 C.ar    1  UNL1        0.2866
      7 C          -6.6860  -15.4810   26.1616 C.ar    1  UNL1        0.0989
      8 C          -7.4463  -16.5072   25.5602 C.ar    1  UNL1        0.1425
      9 C          -8.5877  -17.0203   26.2191 C.ar    1  UNL1        0.0501
     10 C          -9.1644  -16.2696   27.2732 C.ar    1  UNL1        0.1441
     11 O         -10.3860  -16.6511   27.8411 O.3     1  UNL1       -0.5053
     12 C          -8.5134  -15.1062   27.7540 C.ar    1  UNL1        0.1597
     13 C          -9.0513  -14.2984   28.7877 C.2     1  UNL1        0.2146
     14 O         -10.1378  -14.6324   29.3269 O.2     1  UNL1       -0.2859
     15 C          -8.3514  -13.1439   29.2338 C.ar    1  UNL1        0.1263
     16 C          -8.8350  -12.2204   30.2205 C.ar    1  UNL1        0.0304
     17 H         -10.9895  -17.3694   27.4674 H       1  UNL1        0.2922
     18 H          -5.7736  -13.4920   27.3402 H       1  UNL1        0.5634
     19 C          -5.2262  -15.2209   25.7710 C.3     1  UNL1        0.0337
     20 C          -5.0707  -14.6525   24.3571 C.3     1  UNL1        0.0051
     21 C          -4.3467  -16.4629   25.9792 C.3     1  UNL1        0.0051
     22 C          -8.0667  -10.3906   33.1099 C.3     1  UNL1        0.2526
     23 O          -8.4528  -10.3681   31.7402 O.3     1  UNL1       -0.4687
     24 O          -7.0626  -17.0325   24.3209 O.3     1  UNL1       -0.4659
     25 C          -7.4892  -16.4577   23.0842 C.3     1  UNL1        0.2893
     26 C          -6.7109  -16.9934   21.9224 C.2     1  UNL1        0.2673
     27 O          -6.1756  -16.1922   21.1098 O.2     1  UNL1       -0.2711
     28 N          -6.5795  -18.4111   21.7425 N.am    1  UNL1       -0.2953
     29 H          -6.8217  -19.0318   22.5483 H       1  UNL1        0.1499
     30 C          -6.1256  -19.0154   20.4832 C.3     1  UNL1        0.1485
     31 C          -7.2614  -19.7187   19.7806 C.2     1  UNL1        0.2372
     32 N          -8.4383  -18.9942   19.4222 N.am    1  UNL1       -0.3275
     33 O          -7.1648  -20.9355   19.4648 O.2     1  UNL1       -0.2736
     34 H          -9.2200  -19.4729   18.9224 H       1  UNL1        0.1450
     35 H          -8.5290  -17.9787   19.6476 H       1  UNL1        0.1450
     36 C          -4.9361  -19.9651   20.7201 C.3     1  UNL1        0.0325
     37 C          -3.6614  -19.5641   19.9591 C.3     1  UNL1        0.0450
     38 C          -3.7339  -18.1020   19.5059 C.3     1  UNL1        0.1740
     39 N          -2.5874  -17.3418   20.0042 N.pl3   1  UNL1       -0.2625
     40 H          -1.7148  -17.2922   19.4292 H       1  UNL1        0.2587
     41 C          -2.5861  -16.6981   21.2876 C.cat   1  UNL1        0.3769
     42 N          -3.3916  -15.7057   21.4958 N.pl3   1  UNL1       -0.1298
     43 N          -1.7106  -17.1344   22.3352 N.pl3   1  UNL1       -0.2892
     44 H          -3.4255  -15.2061   22.4122 H       1  UNL1        0.3062
     45 H          -1.0650  -17.9439   22.2104 H       1  UNL1        0.2546
     46 H          -1.7099  -16.6506   23.2607 H       1  UNL1        0.2546
     47 C          -9.1886  -18.3623   25.8128 C.3     1  UNL1        0.0578
     48 C         -10.2575  -18.2656   24.7465 C.2     1  UNL1       -0.0297
     49 C         -10.3115  -19.0488   23.6462 C.2     1  UNL1       -0.0475
     50 C         -11.4197  -18.8163   22.6528 C.3     1  UNL1        0.0260
     51 C          -9.3005  -20.1418   23.3929 C.3     1  UNL1        0.0260
     52 O          -5.8034  -10.0647   30.6558 O.3     1  UNL1       -0.4623
     53 C          -5.2654   -8.9605   29.9239 C.3     1  UNL1        0.2895
     54 C          -6.3397   -7.9627   29.6015 C.2     1  UNL1        0.2673
     55 O          -6.0235   -6.7690   29.3477 O.2     1  UNL1       -0.2711
     56 N          -7.7163   -8.3660   29.5870 N.am    1  UNL1       -0.2953
     57 H          -7.9237   -9.3894   29.6459 H       1  UNL1        0.1499
     58 C          -8.8042   -7.4149   29.8313 C.3     1  UNL1        0.1485
     59 C         -10.1020   -7.9921   29.3219 C.2     1  UNL1        0.2372
     60 N         -10.1224   -9.2544   28.6547 N.am    1  UNL1       -0.3275
     61 O         -11.1803   -7.3592   29.4847 O.2     1  UNL1       -0.2736
     62 H         -11.0232   -9.6485   28.3036 H       1  UNL1        0.1450
     63 H          -9.2433   -9.7974   28.5052 H       1  UNL1        0.1450
     64 C          -8.8786   -7.0976   31.3383 C.3     1  UNL1        0.0325
     65 C          -7.9776   -5.9193   31.7428 C.3     1  UNL1        0.0450
     66 C          -7.2401   -6.1874   33.0625 C.3     1  UNL1        0.1740
     67 N          -6.3811   -7.3705   32.9691 N.pl3   1  UNL1       -0.2625
     68 H          -6.7962   -8.3032   32.7460 H       1  UNL1        0.2587
     69 C          -4.9693   -7.3036   33.2074 C.cat   1  UNL1        0.3769
     70 N          -4.4564   -7.8672   34.2551 N.pl3   1  UNL1       -0.1298
     71 N          -4.1262   -6.6178   32.2785 N.pl3   1  UNL1       -0.2892
     72 H          -3.4306   -7.8364   34.4480 H       1  UNL1        0.3062
     73 H          -4.5348   -6.1516   31.4386 H       1  UNL1        0.2546
     74 H          -3.0962   -6.5507   32.4375 H       1  UNL1        0.2546
     75 C         -10.2666  -12.2639   30.7508 C.3     1  UNL1        0.0552
     76 C         -10.3559  -12.9049   32.1184 C.2     1  UNL1       -0.0298
     77 C         -11.5044  -13.1830   32.7732 C.2     1  UNL1       -0.0475
     78 C         -11.4132  -13.8127   34.1397 C.3     1  UNL1        0.0260
     79 C         -12.8601  -12.8743   32.1869 C.3     1  UNL1        0.0260
@<TRIPOS>BOND
     1    22    23    1
     2    23     1    1
     3     1     2   ar
     4     2    52    1
     5    52    53    1
     6    53    54    1
     7    54    55    2
     8    54    56   am
     9    56    58    1
    10    58    64    1
    11    64    65    1
    12    65    66    1
    13    66    67    1
    14    67    69    1
    15    69    70    2
    16    69    71    1
    17    58    59    1
    18    59    60   am
    19    59    61    2
    20     2     3   ar
    21     3     4   ar
    22     4     5    1
    23     5     6    1
    24     6     7   ar
    25     7    19    1
    26    19    20    1
    27    19    21    1
    28     7     8   ar
    29     8    24    1
    30    24    25    1
    31    25    26    1
    32    26    27    2
    33    26    28   am
    34    28    30    1
    35    30    36    1
    36    36    37    1
    37    37    38    1
    38    38    39    1
    39    39    41    1
    40    41    42    2
    41    41    43    1
    42    30    31    1
    43    31    32   am
    44    31    33    2
    45     8     9   ar
    46     9    47    1
    47    47    48    1
    48    48    49    2
    49    49    50    1
    50    49    51    1
    51     9    10   ar
    52    10    11    1
    53    10    12   ar
    54    12    13    1
    55    13    14    2
    56    13    15    1
    57    15    16   ar
    58    16    75    1
    59    75    76    1
    60    76    77    2
    61    77    78    1
    62    77    79    1
    63    16     1   ar
    64    15     4   ar
    65    12     6   ar
    66    56    57    1
    67    67    68    1
    68    70    72    1
    69    71    73    1
    70    71    74    1
    71    60    62    1
    72    60    63    1
    73    28    29    1
    74    39    40    1
    75    42    44    1
    76    43    45    1
    77    43    46    1
    78    32    34    1
    79    32    35    1
    80    11    17    1
    81     5    18    1
@<TRIPOS>MOLECULE
*****
 79 81 0 0 0
SMALL
GASTEIGER

@<TRIPOS>ATOM
      1 C          -8.0438  -12.0019   30.2605 C.ar    1  UNL1        0.1694
      2 C          -9.3166  -12.5900   30.0652 C.ar    1  UNL1        0.1811
      3 C          -9.4809  -13.5480   29.0608 C.ar    1  UNL1        0.1358
      4 C          -8.4542  -13.8474   28.1770 C.ar    1  UNL1        0.2879
      5 O          -8.7038  -14.7177   27.2115 O.3     1  UNL1       -0.5464
      6 C          -7.8229  -15.0715   26.2870 C.ar    1  UNL1        0.2866
      7 C          -8.1828  -16.0417   25.3303 C.ar    1  UNL1        0.0989
      8 C          -7.1926  -16.5137   24.4415 C.ar    1  UNL1        0.1425
      9 C          -5.9911  -15.7874   24.2714 C.ar    1  UNL1        0.0501
     10 C          -5.6340  -14.8187   25.2416 C.ar    1  UNL1        0.1441
     11 O          -4.3800  -14.1968   25.2071 O.3     1  UNL1       -0.5053
     12 C          -6.5434  -14.4808   26.2747 C.ar    1  UNL1        0.1597
     13 C          -6.2359  -13.5393   27.2893 C.2     1  UNL1        0.2146
     14 O          -5.1231  -12.9530   27.2674 O.2     1  UNL1       -0.2859
     15 C          -7.1898  -13.2355   28.2991 C.ar    1  UNL1        0.1263
     16 C          -6.9591  -12.3545   29.4084 C.ar    1  UNL1        0.0304
     17 H          -3.6192  -14.4794   24.6061 H       1  UNL1        0.2922
     18 H          -9.5553  -15.1075   27.1799 H       1  UNL1        0.5634
     19 C          -9.6486  -16.4764   25.2131 C.3     1  UNL1        0.0337
     20 C          -9.8434  -17.9894   25.3520 C.3     1  UNL1        0.0051
     21 C         -10.3058  -15.9385   23.9332 C.3     1  UNL1        0.0051
     22 C          -8.0630  -11.2049   32.6719 C.3     1  UNL1        0.2526
     23 O          -7.7973  -11.0596   31.2813 O.3     1  UNL1       -0.4687
     24 O          -7.4048  -17.6898   23.7129 O.3     1  UNL1       -0.4659
     25 C          -7.1528  -17.7725   22.3087 C.3     1  UNL1        0.2893
     26 C          -8.3303  -18.3189   21.5621 C.2     1  UNL1        0.2673
     27 O          -8.2562  -19.4606   21.0330 O.2     1  UNL1       -0.2711
     28 N          -9.5319  -17.5417   21.4546 N.am    1  UNL1       -0.2953
     29 H          -9.6453  -16.7234   22.0954 H       1  UNL1        0.1499
     30 C         -10.5944  -17.8477   20.4878 C.3     1  UNL1        0.1485
     31 C         -11.2027  -16.5820   19.9342 C.2     1  UNL1        0.2372
     32 N         -10.4048  -15.4060   19.7970 N.am    1  UNL1       -0.3275
     33 O         -12.4027  -16.5630   19.5476 O.2     1  UNL1       -0.2736
     34 H         -10.8172  -14.5328   19.4002 H       1  UNL1        0.1450
     35 H          -9.4007  -15.4062   20.0833 H       1  UNL1        0.1450
     36 C         -11.6664  -18.7613   21.1115 C.3     1  UNL1        0.0325
     37 C         -11.7270  -18.6879   22.6463 C.3     1  UNL1        0.0450
     38 C         -13.0578  -18.0870   23.1115 C.3     1  UNL1        0.1740
     39 N         -13.2021  -18.1952   24.5635 N.pl3   1  UNL1       -0.2625
     40 H         -12.3550  -18.1114   25.1716 H       1  UNL1        0.2587
     41 C         -14.4614  -18.4691   25.1963 C.cat   1  UNL1        0.3769
     42 N         -14.4882  -18.7117   26.4680 N.pl3   1  UNL1       -0.1298
     43 N         -15.6822  -18.4792   24.4452 N.pl3   1  UNL1       -0.2892
     44 H         -15.3799  -18.9171   26.9714 H       1  UNL1        0.3062
     45 H         -15.7011  -18.2664   23.4243 H       1  UNL1        0.2546
     46 H         -16.5908  -18.6918   24.9140 H       1  UNL1        0.2546
     47 C          -5.0937  -16.0316   23.0622 C.3     1  UNL1        0.0578
     48 C          -3.9629  -17.0041   23.3156 C.2     1  UNL1       -0.0297
     49 C          -2.9925  -17.2967   22.4213 C.2     1  UNL1       -0.0475
     50 C          -1.9462  -18.3109   22.8029 C.3     1  UNL1        0.0260
     51 C          -2.9308  -16.6364   21.0645 C.3     1  UNL1        0.0260
     52 O         -10.4063  -12.2025   30.8647 O.3     1  UNL1       -0.4623
     53 C         -11.4421  -11.2958   30.4779 C.3     1  UNL1        0.2895
     54 C         -10.8609  -10.0584   29.8576 C.2     1  UNL1        0.2673
     55 O         -10.2810  -10.1365   28.7410 O.2     1  UNL1       -0.2711
     56 N         -10.9622   -8.7978   30.5346 N.am    1  UNL1       -0.2953
     57 H         -11.5829   -8.7455   31.3747 H       1  UNL1        0.1499
     58 C          -9.9994   -7.7168   30.3059 C.3     1  UNL1        0.1485
     59 C         -10.7087   -6.3869   30.3766 C.2     1  UNL1        0.2372
     60 N         -11.7369   -6.1633   31.3420 N.am    1  UNL1       -0.3275
     61 O         -10.3946   -5.4617   29.5796 O.2     1  UNL1       -0.2736
     62 H         -12.2249   -5.2414   31.3856 H       1  UNL1        0.1450
     63 H         -12.0173   -6.9135   32.0118 H       1  UNL1        0.1450
     64 C          -8.8669   -7.8104   31.3480 C.3     1  UNL1        0.0325
     65 C          -8.1540   -6.4670   31.5734 C.3     1  UNL1        0.0450
     66 C          -7.2870   -6.4829   32.8404 C.3     1  UNL1        0.1740
     67 N          -6.3123   -7.5764   32.8128 N.pl3   1  UNL1       -0.2625
     68 H          -6.6287   -8.5560   32.6329 H       1  UNL1        0.2587
     69 C          -4.9176   -7.3559   33.0590 C.cat   1  UNL1        0.3769
     70 N          -4.2118   -6.6514   32.2320 N.pl3   1  UNL1       -0.1298
     71 N          -4.3084   -7.9108   34.2273 N.pl3   1  UNL1       -0.2892
     72 H          -3.1955   -6.4728   32.3919 H       1  UNL1        0.3062
     73 H          -4.8690   -8.4892   34.8915 H       1  UNL1        0.2546
     74 H          -3.2921   -7.7687   34.4213 H       1  UNL1        0.2546
     75 C          -5.5738  -11.8059   29.7443 C.3     1  UNL1        0.0552
     76 C          -5.5793  -10.3055   29.9388 C.2     1  UNL1       -0.0298
     77 C          -5.3403   -9.3949   28.9697 C.2     1  UNL1       -0.0475
     78 C          -5.3713   -7.9339   29.3389 C.3     1  UNL1        0.0260
     79 C          -5.0356   -9.7950   27.5470 C.3     1  UNL1        0.0260
@<TRIPOS>BOND
     1    22    23    1
     2    23     1    1
     3     1     2   ar
     4     2    52    1
     5    52    53    1
     6    53    54    1
     7    54    55    2
     8    54    56   am
     9    56    58    1
    10    58    64    1
    11    64    65    1
    12    65    66    1
    13    66    67    1
    14    67    69    1
    15    69    70    2
    16    69    71    1
    17    58    59    1
    18    59    60   am
    19    59    61    2
    20     2     3   ar
    21     3     4   ar
    22     4     5    1
    23     5     6    1
    24     6     7   ar
    25     7    19    1
    26    19    20    1
    27    19    21    1
    28     7     8   ar
    29     8    24    1
    30    24    25    1
    31    25    26    1
    32    26    27    2
    33    26    28   am
    34    28    30    1
    35    30    36    1
    36    36    37    1
    37    37    38    1
    38    38    39    1
    39    39    41    1
    40    41    42    2
    41    41    43    1
    42    30    31    1
    43    31    32   am
    44    31    33    2
    45     8     9   ar
    46     9    47    1
    47    47    48    1
    48    48    49    2
    49    49    50    1
    50    49    51    1
    51     9    10   ar
    52    10    11    1
    53    10    12   ar
    54    12    13    1
    55    13    14    2
    56    13    15    1
    57    15    16   ar
    58    16    75    1
    59    75    76    1
    60    76    77    2
    61    77    78    1
    62    77    79    1
    63    16     1   ar
    64    15     4   ar
    65    12     6   ar
    66    56    57    1
    67    67    68    1
    68    70    72    1
    69    71    73    1
    70    71    74    1
    71    60    62    1
    72    60    63    1
    73    28    29    1
    74    39    40    1
    75    42    44    1
    76    43    45    1
    77    43    46    1
    78    32    34    1
    79    32    35    1
    80    11    17    1
    81     5    18    1
@<TRIPOS>MOLECULE
*****
 79 81 0 0 0
SMALL
GASTEIGER

@<TRIPOS>ATOM
      1 C          -7.8662  -11.0675   30.7746 C.ar    1  UNL1        0.1694
      2 C          -6.5649  -10.9385   30.2326 C.ar    1  UNL1        0.1811
      3 C          -6.1751  -11.7743   29.1824 C.ar    1  UNL1        0.1358
      4 C          -6.9934  -12.8038   28.7404 C.ar    1  UNL1        0.2879
      5 O          -6.5303  -13.5949   27.7855 O.3     1  UNL1       -0.5464
      6 C          -7.1961  -14.6290   27.2924 C.ar    1  UNL1        0.2866
      7 C          -6.6242  -15.3783   26.2447 C.ar    1  UNL1        0.0989
      8 C          -7.4011  -16.3857   25.6326 C.ar    1  UNL1        0.1425
      9 C          -8.5625  -16.8722   26.2765 C.ar    1  UNL1        0.0501
     10 C          -9.1344  -16.1090   27.3242 C.ar    1  UNL1        0.1441
     11 O         -10.3718  -16.4619   27.8763 O.3     1  UNL1       -0.5053
     12 C          -8.4622  -14.9617   27.8146 C.ar    1  UNL1        0.1597
     13 C          -8.9937  -14.1424   28.8424 C.2     1  UNL1        0.2146
     14 O         -10.0945  -14.4511   29.3675 O.2     1  UNL1       -0.2859
     15 C          -8.2723  -13.0052   29.2987 C.ar    1  UNL1        0.1263
     16 C          -8.7462  -12.0715   30.2804 C.ar    1  UNL1        0.0304
     17 H         -10.9874  -17.1654   27.4942 H       1  UNL1        0.2922
     18 H          -5.6798  -13.4126   27.4371 H       1  UNL1        0.5634
     19 C          -5.1539  -15.1525   25.8728 C.3     1  UNL1        0.0337
     20 C          -4.9688  -14.5554   24.4744 C.3     1  UNL1        0.0051
     21 C          -4.3134  -16.4248   26.0584 C.3     1  UNL1        0.0051
     22 C          -8.0290  -10.3108   33.1936 C.3     1  UNL1        0.2526
     23 O          -8.3394  -10.2301   31.8070 O.3     1  UNL1       -0.4687
     24 O          -7.0143  -16.9188   24.3975 O.3     1  UNL1       -0.4659
     25 C          -7.3596  -16.2981   23.1576 C.3     1  UNL1        0.2893
     26 C          -6.6196  -16.9043   22.0055 C.2     1  UNL1        0.2673
     27 O          -6.0277  -16.1549   21.1827 O.2     1  UNL1       -0.2711
     28 N          -6.5888  -18.3303   21.8463 N.am    1  UNL1       -0.2953
     29 H          -6.8754  -18.9205   22.6604 H       1  UNL1        0.1499
     30 C          -6.1771  -18.9834   20.5969 C.3     1  UNL1        0.1485
     31 C          -7.3626  -19.5943   19.8899 C.2     1  UNL1        0.2372
     32 N          -8.5300  -18.8100   19.6437 N.am    1  UNL1       -0.3275
     33 O          -7.3174  -20.7830   19.4721 O.2     1  UNL1       -0.2736
     34 H          -9.3464  -19.2238   19.1414 H       1  UNL1        0.1450
     35 H          -8.5793  -17.8145   19.9547 H       1  UNL1        0.1450
     36 C          -5.0750  -20.0286   20.8537 C.3     1  UNL1        0.0325
     37 C          -3.7988  -19.7999   20.0268 C.3     1  UNL1        0.0450
     38 C          -3.6166  -18.3128   19.7049 C.3     1  UNL1        0.1740
     39 N          -2.4066  -17.7848   20.3357 N.pl3   1  UNL1       -0.2625
     40 H          -1.4790  -17.9399   19.8776 H       1  UNL1        0.2587
     41 C          -2.4288  -17.1021   21.5985 C.cat   1  UNL1        0.3769
     42 N          -1.7422  -17.5814   22.5863 N.pl3   1  UNL1       -0.1298
     43 N          -3.1964  -15.9054   21.7812 N.pl3   1  UNL1       -0.2892
     44 H          -1.7284  -17.1202   23.5232 H       1  UNL1        0.3062
     45 H          -3.7431  -15.4789   21.0022 H       1  UNL1        0.2546
     46 H          -3.2146  -15.4242   22.7079 H       1  UNL1        0.2546
     47 C          -9.1898  -18.1992   25.8610 C.3     1  UNL1        0.0578
     48 C         -10.2132  -18.0812   24.7532 C.2     1  UNL1       -0.0297
     49 C         -10.2882  -18.9138   23.6910 C.2     1  UNL1       -0.0475
     50 C         -11.3433  -18.6540   22.6478 C.3     1  UNL1        0.0260
     51 C          -9.3520  -20.0876   23.5281 C.3     1  UNL1        0.0260
     52 O          -5.6702   -9.9886   30.7563 O.3     1  UNL1       -0.4623
     53 C          -5.1239   -8.8768   30.0422 C.3     1  UNL1        0.2895
     54 C          -5.9555   -7.6458   30.2584 C.2     1  UNL1        0.2673
     55 O          -5.3994   -6.5146   30.2725 O.2     1  UNL1       -0.2711
     56 N          -7.3724   -7.7588   30.4519 N.am    1  UNL1       -0.2953
     57 H          -7.8142   -8.6905   30.2770 H       1  UNL1        0.1499
     58 C          -8.1362   -6.7478   31.1883 C.3     1  UNL1        0.1485
     59 C          -7.4222   -6.4156   32.4754 C.2     1  UNL1        0.2372
     60 N          -7.3495   -7.3725   33.5327 N.am    1  UNL1       -0.3275
     61 O          -6.8831   -5.2855   32.6237 O.2     1  UNL1       -0.2736
     62 H          -6.8550   -7.1368   34.4215 H       1  UNL1        0.1450
     63 H          -7.7895   -8.3144   33.4362 H       1  UNL1        0.1450
     64 C          -8.3185   -5.4984   30.3034 C.3     1  UNL1        0.0325
     65 C          -9.7776   -5.2868   29.8671 C.3     1  UNL1        0.0450
     66 C         -10.5409   -6.6142   29.7535 C.3     1  UNL1        0.1740
     67 N         -11.9302   -6.4767   30.1978 N.pl3   1  UNL1       -0.2625
     68 H         -12.5216   -5.6955   29.8346 H       1  UNL1        0.2587
     69 C         -12.5127   -7.3711   31.1544 C.cat   1  UNL1        0.3769
     70 N         -12.3592   -8.6515   31.0294 N.pl3   1  UNL1       -0.1298
     71 N         -13.2590   -6.8437   32.2539 N.pl3   1  UNL1       -0.2892
     72 H         -12.7698   -9.3229   31.7157 H       1  UNL1        0.3062
     73 H         -13.3963   -5.8136   32.3537 H       1  UNL1        0.2546
     74 H         -13.6983   -7.4782   32.9576 H       1  UNL1        0.2546
     75 C         -10.1851  -12.0815   30.7926 C.3     1  UNL1        0.0552
     76 C         -10.3133  -12.7603   32.1387 C.2     1  UNL1       -0.0298
     77 C         -11.4801  -13.0630   32.7488 C.2     1  UNL1       -0.0475
     78 C         -11.4280  -13.7293   34.0998 C.3     1  UNL1        0.0260
     79 C         -12.8186  -12.7463   32.1282 C.3     1  UNL1        0.0260
@<TRIPOS>BOND
     1    22    23    1
     2    23     1    1
     3     1     2   ar
     4     2    52    1
     5    52    53    1
     6    53    54    1
     7    54    55    2
     8    54    56   am
     9    56    58    1
    10    58    64    1
    11    64    65    1
    12    65    66    1
    13    66    67    1
    14    67    69    1
    15    69    70    2
    16    69    71    1
    17    58    59    1
    18    59    60   am
    19    59    61    2
    20     2     3   ar
    21     3     4   ar
    22     4     5    1
    23     5     6    1
    24     6     7   ar
    25     7    19    1
    26    19    20    1
    27    19    21    1
    28     7     8   ar
    29     8    24    1
    30    24    25    1
    31    25    26    1
    32    26    27    2
    33    26    28   am
    34    28    30    1
    35    30    36    1
    36    36    37    1
    37    37    38    1
    38    38    39    1
    39    39    41    1
    40    41    42    2
    41    41    43    1
    42    30    31    1
    43    31    32   am
    44    31    33    2
    45     8     9   ar
    46     9    47    1
    47    47    48    1
    48    48    49    2
    49    49    50    1
    50    49    51    1
    51     9    10   ar
    52    10    11    1
    53    10    12   ar
    54    12    13    1
    55    13    14    2
    56    13    15    1
    57    15    16   ar
    58    16    75    1
    59    75    76    1
    60    76    77    2
    61    77    78    1
    62    77    79    1
    63    16     1   ar
    64    15     4   ar
    65    12     6   ar
    66    56    57    1
    67    67    68    1
    68    70    72    1
    69    71    73    1
    70    71    74    1
    71    60    62    1
    72    60    63    1
    73    28    29    1
    74    39    40    1
    75    42    44    1
    76    43    45    1
    77    43    46    1
    78    32    34    1
    79    32    35    1
    80    11    17    1
    81     5    18    1
