@<TRIPOS>MOLECULE
*****
 48 53 0 0 0
SMALL
GASTEIGER

@<TRIPOS>ATOM
      1 O          58.6072   84.8421    8.9816 O.2     1  UNL1       -0.2701
      2 C          59.7296   84.4455    9.4000 C.2     1  UNL1        0.2483
      3 N          60.1482   83.0950    9.1453 N.am    1  UNL1       -0.2945
      4 H          61.1555   82.8476    9.2749 H       1  UNL1        0.1501
      5 C          60.6119   85.3933   10.1175 C.ar    1  UNL1        0.0808
      6 C          60.8560   85.2112   11.4874 C.ar    1  UNL1        0.0080
      7 C          61.6809   86.0945   12.1875 C.ar    1  UNL1        0.0148
      8 C          62.2931   87.1804   11.5331 C.ar    1  UNL1        0.0510
      9 C          62.0594   87.3488   10.1549 C.ar    1  UNL1        0.0443
     10 C          61.2334   86.4660    9.4522 C.ar    1  UNL1        0.1457
     11 F          61.0886   86.6361    8.1135 F       1  UNL1       -0.2040
     12 N          63.1496   88.0971   12.2608 N.pl3   1  UNL1       -0.2930
     13 C          63.8377   89.1822   11.5396 C.3     1  UNL1        0.1132
     14 C          64.3390   90.2762   12.4881 C.3     1  UNL1        0.1123
     15 N          65.1067   89.7032   13.6037 N.pl3   1  UNL1       -0.3031
     16 C          64.8134   88.3414   14.0770 C.3     1  UNL1        0.1277
     17 C          63.3903   87.9086   13.7022 C.3     1  UNL1        0.1738
     18 CL         62.1941   88.8398   14.6532 Cl      1  UNL1       -0.0910
     19 C          66.1254   90.4900   14.2614 C.ar    1  UNL1        0.0489
     20 C          65.8061   91.2858   15.3765 C.ar    1  UNL1        0.0154
     21 C          66.7911   92.0468   16.0108 C.ar    1  UNL1        0.0135
     22 C          68.1085   92.0280   15.5438 C.ar    1  UNL1        0.0683
     23 CL         69.3194   92.9997   16.3695 Cl      1  UNL1       -0.0814
     24 C          68.4414   91.2396   14.4307 C.ar    1  UNL1        0.0694
     25 CL         70.0851   91.1919   13.8075 Cl      1  UNL1       -0.0813
     26 C          67.4538   90.4769   13.7961 C.ar    1  UNL1        0.0268
     27 C          59.2514   82.1068    8.5392 C.3     1  UNL1        0.1535
     28 C          59.9034   80.7481    8.5502 C.2     1  UNL1        0.2443
     29 O          59.7023   79.9543    7.5907 O.2     1  UNL1       -0.2730
     30 N          60.8274   80.4095    9.5972 N.am    1  UNL1       -0.2825
     31 H          61.1470   81.1761   10.2319 H       1  UNL1        0.1549
     32 C          61.4690   79.1300    9.7186 C.ar    1  UNL1        0.0535
     33 C          62.6740   78.8973    9.0422 C.ar    1  UNL1        0.0353
     34 C          63.3121   77.6616    9.1731 C.ar    1  UNL1        0.1002
     35 N          62.7741   76.6970    9.9654 N.ar    1  UNL1       -0.2422
     36 C          61.6166   76.9004   10.6486 C.ar    1  UNL1        0.1002
     37 C          60.9455   78.1215   10.5443 C.ar    1  UNL1        0.0353
     38 C          57.9095   82.0748    9.2939 C.3     1  UNL1        0.0569
     39 C          58.0881   81.6479   10.7234 C.ar    1  UNL1       -0.0017
     40 C          58.4080   82.4713   11.7993 C.ar    1  UNL1        0.0681
     41 N          58.6078   81.7340   12.9153 N.ar    1  UNL1       -0.3523
     42 C          58.4290   80.4523   12.5506 C.ar    1  UNL1        0.0563
     43 C          58.5598   79.3196   13.3527 C.ar    1  UNL1        0.0170
     44 C          58.3576   78.0628   12.7534 C.ar    1  UNL1        0.0015
     45 C          58.0384   77.9673   11.3805 C.ar    1  UNL1        0.0001
     46 C          57.9168   79.1276   10.5946 C.ar    1  UNL1        0.0012
     47 C          58.1151   80.3593   11.2188 C.ar    1  UNL1        0.0131
     48 H          58.8719   82.0902   13.8607 H       1  UNL1        0.1660
@<TRIPOS>BOND
     1     1     2    2
     2     2     3   am
     3     3    27    1
     4    27    38    1
     5    38    39    1
     6    39    40   ar
     7    40    41   ar
     8    41    42   ar
     9    42    43   ar
    10    43    44   ar
    11    44    45   ar
    12    45    46   ar
    13    46    47   ar
    14    27    28    1
    15    28    29    2
    16    28    30   am
    17    30    32    1
    18    32    33   ar
    19    33    34   ar
    20    34    35   ar
    21    35    36   ar
    22    36    37   ar
    23     2     5    1
    24     5     6   ar
    25     6     7   ar
    26     7     8   ar
    27     8    12    1
    28    12    13    1
    29    13    14    1
    30    14    15    1
    31    15    19    1
    32    19    20   ar
    33    20    21   ar
    34    21    22   ar
    35    22    23    1
    36    22    24   ar
    37    24    25    1
    38    24    26   ar
    39    15    16    1
    40    16    17    1
    41    17    18    1
    42     8     9   ar
    43     9    10   ar
    44    10    11    1
    45    47    39   ar
    46    37    32   ar
    47    10     5   ar
    48    47    42   ar
    49    17    12    1
    50    26    19   ar
    51     3     4    1
    52    41    48    1
    53    30    31    1
@<TRIPOS>MOLECULE
*****
 48 53 0 0 0
SMALL
GASTEIGER

@<TRIPOS>ATOM
      1 O          58.8476   85.5704    8.6067 O.2     1  UNL1       -0.2701
      2 C          59.8080   85.0714    9.2553 C.2     1  UNL1        0.2483
      3 N          60.0135   83.6497    9.2433 N.am    1  UNL1       -0.2945
      4 H          60.9309   83.2711    9.5718 H       1  UNL1        0.1501
      5 C          60.7291   85.9674    9.9907 C.ar    1  UNL1        0.0808
      6 C          61.0819   85.6631   11.3144 C.ar    1  UNL1        0.0080
      7 C          61.9453   86.4953   12.0306 C.ar    1  UNL1        0.0148
      8 C          62.4880   87.6512   11.4379 C.ar    1  UNL1        0.0510
      9 C          62.1452   87.9429   10.1038 C.ar    1  UNL1        0.0443
     10 C          61.2804   87.1115    9.3852 C.ar    1  UNL1        0.1457
     11 F          61.0292   87.4031    8.0837 F       1  UNL1       -0.2040
     12 N          63.3846   88.5147   12.1823 N.pl3   1  UNL1       -0.2930
     13 C          64.1555   89.5516   11.4741 C.3     1  UNL1        0.1132
     14 C          64.7040   90.6152   12.4310 C.3     1  UNL1        0.1123
     15 N          65.4094   89.9989   13.5646 N.pl3   1  UNL1       -0.3031
     16 C          65.0204   88.6601   14.0343 C.3     1  UNL1        0.1277
     17 C          63.5813   88.3166   13.6292 C.3     1  UNL1        0.1738
     18 CL         62.4258   89.3248   14.5514 Cl      1  UNL1       -0.0910
     19 C          66.4612   90.7222   14.2428 C.ar    1  UNL1        0.0489
     20 C          66.1657   91.5564   15.3363 C.ar    1  UNL1        0.0154
     21 C          67.1826   92.2559   15.9905 C.ar    1  UNL1        0.0135
     22 C          68.5089   92.1367   15.5652 C.ar    1  UNL1        0.0683
     23 CL         69.7603   93.0335   16.4148 Cl      1  UNL1       -0.0814
     24 C          68.8184   91.3090   14.4741 C.ar    1  UNL1        0.0694
     25 CL         70.4727   91.1353   13.9032 Cl      1  UNL1       -0.0813
     26 C          67.7987   90.6079   13.8195 C.ar    1  UNL1        0.0268
     27 C          59.0548   82.7332    8.6196 C.3     1  UNL1        0.1535
     28 C          59.5815   81.3224    8.6784 C.2     1  UNL1        0.2443
     29 O          59.3650   80.5373    7.7151 O.2     1  UNL1       -0.2730
     30 N          60.4113   80.9167    9.7791 N.am    1  UNL1       -0.2825
     31 H          60.7615   81.6601   10.4252 H       1  UNL1        0.1549
     32 C          60.9284   79.5872    9.9470 C.ar    1  UNL1        0.0535
     33 C          62.0988   79.2137    9.2728 C.ar    1  UNL1        0.0353
     34 C          62.6168   77.9284    9.4485 C.ar    1  UNL1        0.1002
     35 N          61.9968   77.0514   10.2815 N.ar    1  UNL1       -0.2422
     36 C          60.8709   77.3913   10.9632 C.ar    1  UNL1        0.1002
     37 C          60.3189   78.6663   10.8150 C.ar    1  UNL1        0.0353
     38 C          57.6884   82.8358    9.3221 C.3     1  UNL1        0.0569
     39 C          57.8182   82.6805   10.8110 C.ar    1  UNL1       -0.0017
     40 C          57.9647   81.4848   11.5087 C.ar    1  UNL1        0.0681
     41 N          57.9302   81.7088   12.8421 N.ar    1  UNL1       -0.3523
     42 C          57.7510   83.0328   12.9917 C.ar    1  UNL1        0.0563
     43 C          57.6204   83.7378   14.1874 C.ar    1  UNL1        0.0170
     44 C          57.4054   85.1262   14.1117 C.ar    1  UNL1        0.0015
     45 C          57.3212   85.7703   12.8572 C.ar    1  UNL1        0.0001
     46 C          57.4528   85.0325   11.6668 C.ar    1  UNL1        0.0012
     47 C          57.6732   83.6592   11.7742 C.ar    1  UNL1        0.0131
     48 H          58.0032   80.9923   13.5982 H       1  UNL1        0.1660
@<TRIPOS>BOND
     1     1     2    2
     2     2     3   am
     3     3    27    1
     4    27    38    1
     5    38    39    1
     6    39    40   ar
     7    40    41   ar
     8    41    42   ar
     9    42    43   ar
    10    43    44   ar
    11    44    45   ar
    12    45    46   ar
    13    46    47   ar
    14    27    28    1
    15    28    29    2
    16    28    30   am
    17    30    32    1
    18    32    33   ar
    19    33    34   ar
    20    34    35   ar
    21    35    36   ar
    22    36    37   ar
    23     2     5    1
    24     5     6   ar
    25     6     7   ar
    26     7     8   ar
    27     8    12    1
    28    12    13    1
    29    13    14    1
    30    14    15    1
    31    15    19    1
    32    19    20   ar
    33    20    21   ar
    34    21    22   ar
    35    22    23    1
    36    22    24   ar
    37    24    25    1
    38    24    26   ar
    39    15    16    1
    40    16    17    1
    41    17    18    1
    42     8     9   ar
    43     9    10   ar
    44    10    11    1
    45    47    39   ar
    46    37    32   ar
    47    10     5   ar
    48    47    42   ar
    49    17    12    1
    50    26    19   ar
    51     3     4    1
    52    41    48    1
    53    30    31    1
@<TRIPOS>MOLECULE
*****
 48 53 0 0 0
SMALL
GASTEIGER

@<TRIPOS>ATOM
      1 O          58.4165   84.6007   10.9565 O.2     1  UNL1       -0.2701
      2 C          59.2350   84.2813   11.8621 C.2     1  UNL1        0.2483
      3 N          59.2110   82.9526   12.4078 N.am    1  UNL1       -0.2945
      4 H          60.0297   82.6242   12.9688 H       1  UNL1        0.1501
      5 C          60.2313   85.2751   12.3220 C.ar    1  UNL1        0.0808
      6 C          61.1554   85.8039   11.4078 C.ar    1  UNL1        0.0080
      7 C          62.1080   86.7392   11.8185 C.ar    1  UNL1        0.0148
      8 C          62.1562   87.1790   13.1550 C.ar    1  UNL1        0.0510
      9 C          61.2158   86.6588   14.0647 C.ar    1  UNL1        0.0443
     10 C          60.2616   85.7219   13.6558 C.ar    1  UNL1        0.1457
     11 F          59.3394   85.2969   14.5563 F       1  UNL1       -0.2040
     12 N          63.1457   88.1502   13.5806 N.pl3   1  UNL1       -0.2930
     13 C          63.8181   88.9951   12.5781 C.3     1  UNL1        0.1132
     14 C          64.4914   90.2163   13.2129 C.3     1  UNL1        0.1123
     15 N          65.3396   89.8264   14.3491 N.pl3   1  UNL1       -0.3031
     16 C          65.0132   88.6257   15.1340 C.3     1  UNL1        0.1277
     17 C          63.5322   88.2492   14.9991 C.3     1  UNL1        0.1738
     18 CL         62.5118   89.4603   15.8324 Cl      1  UNL1       -0.0910
     19 C          66.4737   90.6423   14.7197 C.ar    1  UNL1        0.0489
     20 C          66.3495   91.6323   15.7113 C.ar    1  UNL1        0.0154
     21 C          67.4458   92.4211   16.0681 C.ar    1  UNL1        0.0135
     22 C          68.6821   92.2372   15.4422 C.ar    1  UNL1        0.0683
     23 CL         70.0380   93.2502   15.9192 Cl      1  UNL1       -0.0814
     24 C          68.8204   91.2540   14.4494 C.ar    1  UNL1        0.0694
     25 CL         70.3562   90.9939   13.6331 Cl      1  UNL1       -0.0813
     26 C          67.7214   90.4636   14.0930 C.ar    1  UNL1        0.0268
     27 C          58.1663   81.9878   12.0532 C.3     1  UNL1        0.1535
     28 C          58.2303   81.6815   10.5790 C.2     1  UNL1        0.2443
     29 O          57.2715   81.0747   10.0279 O.2     1  UNL1       -0.2730
     30 N          59.3303   82.1732    9.7961 N.am    1  UNL1       -0.2825
     31 H          59.9716   82.8692   10.2398 H       1  UNL1        0.1549
     32 C          59.5029   81.9027    8.3959 C.ar    1  UNL1        0.0535
     33 C          60.2248   82.8061    7.6044 C.ar    1  UNL1        0.0353
     34 C          60.4126   82.5377    6.2465 C.ar    1  UNL1        0.1002
     35 N          59.9111   81.3981    5.7011 N.ar    1  UNL1       -0.2422
     36 C          59.2232   80.4942    6.4477 C.ar    1  UNL1        0.1002
     37 C          59.0115   80.7248    7.8094 C.ar    1  UNL1        0.0353
     38 C          58.3266   80.7022   12.8856 C.3     1  UNL1        0.0569
     39 C          58.9046   79.5818   12.0681 C.ar    1  UNL1       -0.0017
     40 C          58.3737   78.3029   11.9242 C.ar    1  UNL1        0.0681
     41 N          59.2170   77.5185   11.2153 N.ar    1  UNL1       -0.3523
     42 C          60.2803   78.2869   10.9213 C.ar    1  UNL1        0.0563
     43 C          61.4296   77.9096   10.2282 C.ar    1  UNL1        0.0170
     44 C          62.4416   78.8725   10.0598 C.ar    1  UNL1        0.0015
     45 C          62.2863   80.1740   10.5868 C.ar    1  UNL1        0.0001
     46 C          61.1170   80.5254   11.2855 C.ar    1  UNL1        0.0012
     47 C          60.1283   79.5518   11.4291 C.ar    1  UNL1        0.0131
     48 H          59.0778   76.5131   10.9699 H       1  UNL1        0.1660
@<TRIPOS>BOND
     1     1     2    2
     2     2     3   am
     3     3    27    1
     4    27    38    1
     5    38    39    1
     6    39    40   ar
     7    40    41   ar
     8    41    42   ar
     9    42    43   ar
    10    43    44   ar
    11    44    45   ar
    12    45    46   ar
    13    46    47   ar
    14    27    28    1
    15    28    29    2
    16    28    30   am
    17    30    32    1
    18    32    33   ar
    19    33    34   ar
    20    34    35   ar
    21    35    36   ar
    22    36    37   ar
    23     2     5    1
    24     5     6   ar
    25     6     7   ar
    26     7     8   ar
    27     8    12    1
    28    12    13    1
    29    13    14    1
    30    14    15    1
    31    15    19    1
    32    19    20   ar
    33    20    21   ar
    34    21    22   ar
    35    22    23    1
    36    22    24   ar
    37    24    25    1
    38    24    26   ar
    39    15    16    1
    40    16    17    1
    41    17    18    1
    42     8     9   ar
    43     9    10   ar
    44    10    11    1
    45    47    39   ar
    46    37    32   ar
    47    10     5   ar
    48    47    42   ar
    49    17    12    1
    50    26    19   ar
    51     3     4    1
    52    41    48    1
    53    30    31    1
@<TRIPOS>MOLECULE
*****
 48 53 0 0 0
SMALL
GASTEIGER

@<TRIPOS>ATOM
      1 O          58.6746   85.0913   11.4476 O.2     1  UNL1       -0.2701
      2 C          59.4056   86.1129   11.3289 C.2     1  UNL1        0.2483
      3 N          60.1694   86.5770   12.4536 N.am    1  UNL1       -0.2945
      4 H          60.9437   87.2597   12.2887 H       1  UNL1        0.1501
      5 C          59.4898   86.7956   10.0179 C.ar    1  UNL1        0.0808
      6 C          60.0269   88.0899    9.9440 C.ar    1  UNL1        0.0080
      7 C          60.1126   88.7566    8.7196 C.ar    1  UNL1        0.0148
      8 C          59.6716   88.1419    7.5323 C.ar    1  UNL1        0.0510
      9 C          59.1499   86.8364    7.6088 C.ar    1  UNL1        0.0443
     10 C          59.0625   86.1674    8.8337 C.ar    1  UNL1        0.1457
     11 F          58.6086   84.8883    8.8457 F       1  UNL1       -0.2040
     12 N          59.7611   88.8348    6.2613 N.pl3   1  UNL1       -0.2930
     13 C          60.8522   88.5084    5.3266 C.3     1  UNL1        0.1132
     14 C          60.5609   89.0037    3.9062 C.3     1  UNL1        0.1123
     15 N          60.1621   90.4191    3.9071 N.pl3   1  UNL1       -0.3031
     16 C          59.4886   90.9940    5.0819 C.3     1  UNL1        0.1277
     17 C          58.8098   89.9101    5.9291 C.3     1  UNL1        0.1738
     18 CL         57.4016   89.2376    5.0532 Cl      1  UNL1       -0.0910
     19 C          60.3976   91.2386    2.7399 C.ar    1  UNL1        0.0489
     20 C          61.6838   91.7363    2.4627 C.ar    1  UNL1        0.0154
     21 C          61.9103   92.5292    1.3350 C.ar    1  UNL1        0.0135
     22 C          60.8595   92.8397    0.4670 C.ar    1  UNL1        0.0683
     23 CL         61.1851   93.8406   -0.9417 Cl      1  UNL1       -0.0814
     24 C          59.5701   92.3512    0.7320 C.ar    1  UNL1        0.0694
     25 CL         58.2192   92.7228   -0.3309 Cl      1  UNL1       -0.0813
     26 C          59.3442   91.5563    1.8619 C.ar    1  UNL1        0.0268
     27 C          60.0183   85.9905   13.7882 C.3     1  UNL1        0.1535
     28 C          61.0196   84.8799   13.9765 C.2     1  UNL1        0.2443
     29 O          60.9591   84.1566   15.0082 O.2     1  UNL1       -0.2730
     30 N          61.9651   84.5887   12.9345 N.am    1  UNL1       -0.2825
     31 H          61.8248   85.0489   12.0065 H       1  UNL1        0.1549
     32 C          62.9826   83.5796   13.0332 C.ar    1  UNL1        0.0535
     33 C          63.1219   82.6395   12.0033 C.ar    1  UNL1        0.0353
     34 C          64.1228   81.6686   12.0851 C.ar    1  UNL1        0.1002
     35 N          64.9665   81.6472   13.1506 N.ar    1  UNL1       -0.2422
     36 C          64.8678   82.5575   14.1553 C.ar    1  UNL1        0.1002
     37 C          63.8798   83.5445   14.1134 C.ar    1  UNL1        0.0353
     38 C          60.1957   87.0746   14.8674 C.3     1  UNL1        0.0569
     39 C          61.6437   87.4184   15.0740 C.ar    1  UNL1       -0.0017
     40 C          62.3667   87.2808   16.2557 C.ar    1  UNL1        0.0681
     41 N          63.6078   87.7989   16.1132 N.ar    1  UNL1       -0.3523
     42 C          63.6702   88.2731   14.8567 C.ar    1  UNL1        0.0563
     43 C          64.7427   88.9284   14.2533 C.ar    1  UNL1        0.0170
     44 C          64.5800   89.3733   12.9285 C.ar    1  UNL1        0.0015
     45 C          63.3612   89.1608   12.2464 C.ar    1  UNL1        0.0001
     46 C          62.2945   88.4999   12.8821 C.ar    1  UNL1        0.0012
     47 C          62.4887   88.0634   14.1926 C.ar    1  UNL1        0.0131
     48 H          64.3543   87.8423   16.8420 H       1  UNL1        0.1660
@<TRIPOS>BOND
     1     1     2    2
     2     2     3   am
     3     3    27    1
     4    27    38    1
     5    38    39    1
     6    39    40   ar
     7    40    41   ar
     8    41    42   ar
     9    42    43   ar
    10    43    44   ar
    11    44    45   ar
    12    45    46   ar
    13    46    47   ar
    14    27    28    1
    15    28    29    2
    16    28    30   am
    17    30    32    1
    18    32    33   ar
    19    33    34   ar
    20    34    35   ar
    21    35    36   ar
    22    36    37   ar
    23     2     5    1
    24     5     6   ar
    25     6     7   ar
    26     7     8   ar
    27     8    12    1
    28    12    13    1
    29    13    14    1
    30    14    15    1
    31    15    19    1
    32    19    20   ar
    33    20    21   ar
    34    21    22   ar
    35    22    23    1
    36    22    24   ar
    37    24    25    1
    38    24    26   ar
    39    15    16    1
    40    16    17    1
    41    17    18    1
    42     8     9   ar
    43     9    10   ar
    44    10    11    1
    45    47    39   ar
    46    37    32   ar
    47    10     5   ar
    48    47    42   ar
    49    17    12    1
    50    26    19   ar
    51     3     4    1
    52    41    48    1
    53    30    31    1
@<TRIPOS>MOLECULE
*****
 48 53 0 0 0
SMALL
GASTEIGER

@<TRIPOS>ATOM
      1 O          57.7070   83.2716   12.1620 O.2     1  UNL1       -0.2701
      2 C          58.9079   83.0169   12.4534 C.2     1  UNL1        0.2483
      3 N          59.3809   81.6613   12.4040 N.am    1  UNL1       -0.2945
      4 H          60.4117   81.4878   12.4067 H       1  UNL1        0.1501
      5 C          59.8192   84.1285   12.8080 C.ar    1  UNL1        0.0808
      6 C          61.1040   84.1774   12.2457 C.ar    1  UNL1        0.0080
      7 C          61.9836   85.2133   12.5682 C.ar    1  UNL1        0.0148
      8 C          61.5980   86.2356   13.4561 C.ar    1  UNL1        0.0510
      9 C          60.3017   86.1918   14.0040 C.ar    1  UNL1        0.0443
     10 C          59.4197   85.1553   13.6830 C.ar    1  UNL1        0.1457
     11 F          58.1612   85.1913   14.1898 F       1  UNL1       -0.2040
     12 N          62.5120   87.3109   13.7904 N.pl3   1  UNL1       -0.2930
     13 C          63.1080   88.1236   12.7156 C.3     1  UNL1        0.1132
     14 C          63.6890   89.4394   13.2436 C.3     1  UNL1        0.1123
     15 N          64.5744   89.2069   14.3944 N.pl3   1  UNL1       -0.3031
     16 C          64.3495   88.0501   15.2751 C.3     1  UNL1        0.1277
     17 C          62.9014   87.5509   15.1912 C.3     1  UNL1        0.1738
     18 CL         61.7964   88.7414   15.9422 Cl      1  UNL1       -0.0910
     19 C          65.6444   90.1346   14.6839 C.ar    1  UNL1        0.0489
     20 C          65.4777   91.1386   15.6550 C.ar    1  UNL1        0.0154
     21 C          66.5119   92.0355   15.9335 C.ar    1  UNL1        0.0135
     22 C          67.7272   91.9474   15.2484 C.ar    1  UNL1        0.0683
     23 CL         69.0045   93.0950   15.6275 Cl      1  UNL1       -0.0814
     24 C          67.9072   90.9514   14.2753 C.ar    1  UNL1        0.0694
     25 CL         69.4179   90.8092   13.3863 Cl      1  UNL1       -0.0813
     26 C          66.8705   90.0527   13.9974 C.ar    1  UNL1        0.0268
     27 C          58.4761   80.5329   12.1675 C.3     1  UNL1        0.1535
     28 C          58.3135   80.3078   10.6862 C.2     1  UNL1        0.2443
     29 O          57.5013   79.4345   10.2755 O.2     1  UNL1       -0.2730
     30 N          59.0044   81.1578    9.7562 N.am    1  UNL1       -0.2825
     31 H          59.4721   82.0135   10.1327 H       1  UNL1        0.1549
     32 C          58.9469   81.0003    8.3295 C.ar    1  UNL1        0.0535
     33 C          57.8310   80.3817    7.7498 C.ar    1  UNL1        0.0353
     34 C          57.7611   80.2442    6.3615 C.ar    1  UNL1        0.1002
     35 N          58.7632   80.7228    5.5777 N.ar    1  UNL1       -0.2422
     36 C          59.8488   81.3440    6.1100 C.ar    1  UNL1        0.1002
     37 C          59.9589   81.5010    7.4940 C.ar    1  UNL1        0.0353
     38 C          59.0165   79.2661   12.8563 C.3     1  UNL1        0.0569
     39 C          60.3952   79.4836   13.4127 C.ar    1  UNL1       -0.0017
     40 C          60.7945   79.2943   14.7327 C.ar    1  UNL1        0.0681
     41 N          62.0734   79.7003   14.9023 N.ar    1  UNL1       -0.3523
     42 C          62.4804   80.1554   13.7045 C.ar    1  UNL1        0.0563
     43 C          63.7203   80.7084   13.3877 C.ar    1  UNL1        0.0170
     44 C          63.9239   81.1535   12.0686 C.ar    1  UNL1        0.0015
     45 C          62.8937   81.0422   11.1083 C.ar    1  UNL1        0.0001
     46 C          61.6509   80.4833   11.4578 C.ar    1  UNL1        0.0012
     47 C          61.4820   80.0438   12.7708 C.ar    1  UNL1        0.0131
     48 H          62.6213   79.6849   15.7910 H       1  UNL1        0.1660
@<TRIPOS>BOND
     1     1     2    2
     2     2     3   am
     3     3    27    1
     4    27    38    1
     5    38    39    1
     6    39    40   ar
     7    40    41   ar
     8    41    42   ar
     9    42    43   ar
    10    43    44   ar
    11    44    45   ar
    12    45    46   ar
    13    46    47   ar
    14    27    28    1
    15    28    29    2
    16    28    30   am
    17    30    32    1
    18    32    33   ar
    19    33    34   ar
    20    34    35   ar
    21    35    36   ar
    22    36    37   ar
    23     2     5    1
    24     5     6   ar
    25     6     7   ar
    26     7     8   ar
    27     8    12    1
    28    12    13    1
    29    13    14    1
    30    14    15    1
    31    15    19    1
    32    19    20   ar
    33    20    21   ar
    34    21    22   ar
    35    22    23    1
    36    22    24   ar
    37    24    25    1
    38    24    26   ar
    39    15    16    1
    40    16    17    1
    41    17    18    1
    42     8     9   ar
    43     9    10   ar
    44    10    11    1
    45    47    39   ar
    46    37    32   ar
    47    10     5   ar
    48    47    42   ar
    49    17    12    1
    50    26    19   ar
    51     3     4    1
    52    41    48    1
    53    30    31    1
@<TRIPOS>MOLECULE
*****
 48 53 0 0 0
SMALL
GASTEIGER

@<TRIPOS>ATOM
      1 O          59.4787   86.1207   11.2113 O.2     1  UNL1       -0.2701
      2 C          60.0033   85.7412   10.1283 C.2     1  UNL1        0.2483
      3 N          60.6093   84.4412   10.0473 N.am    1  UNL1       -0.2945
      4 H          60.8195   84.0420    9.1043 H       1  UNL1        0.1501
      5 C          59.9531   86.6324    8.9472 C.ar    1  UNL1        0.0808
      6 C          60.7053   87.8172    8.9408 C.ar    1  UNL1        0.0080
      7 C          60.6709   88.6767    7.8403 C.ar    1  UNL1        0.0148
      8 C          59.8894   88.3692    6.7104 C.ar    1  UNL1        0.0510
      9 C          59.1503   87.1708    6.7142 C.ar    1  UNL1        0.0443
     10 C          59.1828   86.3092    7.8151 C.ar    1  UNL1        0.1457
     11 F          58.5010   85.1377    7.7451 F       1  UNL1       -0.2040
     12 N          59.8543   89.2622    5.5680 N.pl3   1  UNL1       -0.2930
     13 C          58.6618   90.0931    5.3269 C.3     1  UNL1        0.1132
     14 C          58.9509   91.2491    4.3637 C.3     1  UNL1        0.1123
     15 N          59.6178   90.7714    3.1433 N.pl3   1  UNL1       -0.3031
     16 C          60.4659   89.5701    3.1894 C.3     1  UNL1        0.1277
     17 C          60.9736   89.2927    4.6101 C.3     1  UNL1        0.1738
     18 CL         62.1630   90.5398    5.0923 Cl      1  UNL1       -0.0910
     19 C          59.4714   91.5019    1.9046 C.ar    1  UNL1        0.0489
     20 C          60.2413   92.6530    1.6574 C.ar    1  UNL1        0.0154
     21 C          60.0983   93.3590    0.4605 C.ar    1  UNL1        0.0135
     22 C          59.1856   92.9306   -0.5078 C.ar    1  UNL1        0.0683
     23 CL         59.0350   93.8466   -2.0013 Cl      1  UNL1       -0.0814
     24 C          58.4092   91.7844   -0.2740 C.ar    1  UNL1        0.0694
     25 CL         57.2455   91.2147   -1.4630 Cl      1  UNL1       -0.0813
     26 C          58.5537   91.0772    0.9254 C.ar    1  UNL1        0.0268
     27 C          60.7729   83.5874   11.2272 C.3     1  UNL1        0.1535
     28 C          61.5576   84.3199   12.2852 C.2     1  UNL1        0.2443
     29 O          62.8173   84.3399   12.2227 O.2     1  UNL1       -0.2730
     30 N          60.8641   85.0737   13.2929 N.am    1  UNL1       -0.2825
     31 H          59.8378   85.2272   13.1666 H       1  UNL1        0.1549
     32 C          61.5176   85.7716   14.3648 C.ar    1  UNL1        0.0535
     33 C          62.3600   86.8520   14.0701 C.ar    1  UNL1        0.0353
     34 C          62.9820   87.5466   15.1102 C.ar    1  UNL1        0.1002
     35 N          62.7575   87.1855   16.4013 N.ar    1  UNL1       -0.2422
     36 C          61.9308   86.1542   16.7187 C.ar    1  UNL1        0.1002
     37 C          61.2900   85.4321   15.7087 C.ar    1  UNL1        0.0353
     38 C          59.3960   83.1588   11.7672 C.3     1  UNL1        0.0569
     39 C          58.8481   81.9801   11.0133 C.ar    1  UNL1       -0.0017
     40 C          58.1983   82.0142    9.7827 C.ar    1  UNL1        0.0681
     41 N          57.7338   80.7857    9.4596 N.ar    1  UNL1       -0.3523
     42 C          58.0736   79.9799   10.4807 C.ar    1  UNL1        0.0563
     43 C          57.7834   78.6234   10.6191 C.ar    1  UNL1        0.0170
     44 C          58.2098   77.9763   11.7934 C.ar    1  UNL1        0.0015
     45 C          58.9038   78.6927   12.7940 C.ar    1  UNL1        0.0001
     46 C          59.1793   80.0622   12.6287 C.ar    1  UNL1        0.0012
     47 C          58.7510   80.6739   11.4505 C.ar    1  UNL1        0.0131
     48 H          57.1983   80.5258    8.6017 H       1  UNL1        0.1660
@<TRIPOS>BOND
     1     1     2    2
     2     2     3   am
     3     3    27    1
     4    27    38    1
     5    38    39    1
     6    39    40   ar
     7    40    41   ar
     8    41    42   ar
     9    42    43   ar
    10    43    44   ar
    11    44    45   ar
    12    45    46   ar
    13    46    47   ar
    14    27    28    1
    15    28    29    2
    16    28    30   am
    17    30    32    1
    18    32    33   ar
    19    33    34   ar
    20    34    35   ar
    21    35    36   ar
    22    36    37   ar
    23     2     5    1
    24     5     6   ar
    25     6     7   ar
    26     7     8   ar
    27     8    12    1
    28    12    13    1
    29    13    14    1
    30    14    15    1
    31    15    19    1
    32    19    20   ar
    33    20    21   ar
    34    21    22   ar
    35    22    23    1
    36    22    24   ar
    37    24    25    1
    38    24    26   ar
    39    15    16    1
    40    16    17    1
    41    17    18    1
    42     8     9   ar
    43     9    10   ar
    44    10    11    1
    45    47    39   ar
    46    37    32   ar
    47    10     5   ar
    48    47    42   ar
    49    17    12    1
    50    26    19   ar
    51     3     4    1
    52    41    48    1
    53    30    31    1
@<TRIPOS>MOLECULE
*****
 48 53 0 0 0
SMALL
GASTEIGER

@<TRIPOS>ATOM
      1 O          58.5407   85.8639   11.9459 O.2     1  UNL1       -0.2701
      2 C          59.4249   85.5548   11.1005 C.2     1  UNL1        0.2483
      3 N          60.2714   84.4187   11.3380 N.am    1  UNL1       -0.2945
      4 H          60.8242   84.0279   10.5415 H       1  UNL1        0.1501
      5 C          59.5502   86.3509    9.8586 C.ar    1  UNL1        0.0808
      6 C          58.9768   85.8747    8.6696 C.ar    1  UNL1        0.0080
      7 C          59.0855   86.6052    7.4840 C.ar    1  UNL1        0.0148
      8 C          59.7635   87.8388    7.4577 C.ar    1  UNL1        0.0510
      9 C          60.3219   88.3210    8.6569 C.ar    1  UNL1        0.0443
     10 C          60.2148   87.5909    9.8448 C.ar    1  UNL1        0.1457
     11 F          60.7171   88.1273   10.9858 F       1  UNL1       -0.2040
     12 N          59.8758   88.5968    6.2262 N.pl3   1  UNL1       -0.2930
     13 C          60.8678   88.1993    5.2119 C.3     1  UNL1        0.1132
     14 C          60.5702   88.8185    3.8423 C.3     1  UNL1        0.1123
     15 N          60.3553   90.2693    3.9490 N.pl3   1  UNL1       -0.3031
     16 C          59.8208   90.8453    5.1927 C.3     1  UNL1        0.1277
     17 C          59.0535   89.8009    6.0135 C.3     1  UNL1        0.1738
     18 CL         57.5286   89.3664    5.1838 Cl      1  UNL1       -0.0910
     19 C          60.6336   91.1276    2.8197 C.ar    1  UNL1        0.0489
     20 C          59.5841   91.7370    2.1083 C.ar    1  UNL1        0.0154
     21 C          59.8540   92.5655    1.0164 C.ar    1  UNL1        0.0135
     22 C          61.1726   92.7988    0.6154 C.ar    1  UNL1        0.0683
     23 CL         61.4709   93.8479   -0.7640 Cl      1  UNL1       -0.0814
     24 C          62.2301   92.1959    1.3150 C.ar    1  UNL1        0.0694
     25 CL         63.9029   92.4583    0.8401 Cl      1  UNL1       -0.0813
     26 C          61.9587   91.3663    2.4094 C.ar    1  UNL1        0.0268
     27 C          60.2452   83.6841   12.6060 C.3     1  UNL1        0.1535
     28 C          60.7322   84.5714   13.7227 C.2     1  UNL1        0.2443
     29 O          60.2485   84.4365   14.8798 O.2     1  UNL1       -0.2730
     30 N          61.8127   85.4882   13.4848 N.am    1  UNL1       -0.2825
     31 H          62.3404   85.3972   12.5870 H       1  UNL1        0.1549
     32 C          62.3214   86.4019   14.4695 C.ar    1  UNL1        0.0535
     33 C          62.8250   87.6441   14.0607 C.ar    1  UNL1        0.0353
     34 C          63.3023   88.5442   15.0163 C.ar    1  UNL1        0.1002
     35 N          63.2628   88.2220   16.3362 N.ar    1  UNL1       -0.2422
     36 C          62.7628   87.0326   16.7642 C.ar    1  UNL1        0.1002
     37 C          62.2765   86.1030   15.8413 C.ar    1  UNL1        0.0353
     38 C          58.8210   83.1746   12.8947 C.3     1  UNL1        0.0569
     39 C          58.5525   81.8640   12.2106 C.ar    1  UNL1       -0.0017
     40 C          58.7033   80.5955   12.7638 C.ar    1  UNL1        0.0681
     41 N          58.4890   79.6434   11.8275 N.ar    1  UNL1       -0.3523
     42 C          58.2166   80.2996   10.6862 C.ar    1  UNL1        0.0563
     43 C          57.9576   79.7446    9.4337 C.ar    1  UNL1        0.0170
     44 C          57.7280   80.6240    8.3598 C.ar    1  UNL1        0.0015
     45 C          57.7674   82.0222    8.5583 C.ar    1  UNL1        0.0001
     46 C          58.0351   82.5539    9.8328 C.ar    1  UNL1        0.0012
     47 C          58.2507   81.6570   10.8792 C.ar    1  UNL1        0.0131
     48 H          58.5488   78.6096   11.9624 H       1  UNL1        0.1660
@<TRIPOS>BOND
     1     1     2    2
     2     2     3   am
     3     3    27    1
     4    27    38    1
     5    38    39    1
     6    39    40   ar
     7    40    41   ar
     8    41    42   ar
     9    42    43   ar
    10    43    44   ar
    11    44    45   ar
    12    45    46   ar
    13    46    47   ar
    14    27    28    1
    15    28    29    2
    16    28    30   am
    17    30    32    1
    18    32    33   ar
    19    33    34   ar
    20    34    35   ar
    21    35    36   ar
    22    36    37   ar
    23     2     5    1
    24     5     6   ar
    25     6     7   ar
    26     7     8   ar
    27     8    12    1
    28    12    13    1
    29    13    14    1
    30    14    15    1
    31    15    19    1
    32    19    20   ar
    33    20    21   ar
    34    21    22   ar
    35    22    23    1
    36    22    24   ar
    37    24    25    1
    38    24    26   ar
    39    15    16    1
    40    16    17    1
    41    17    18    1
    42     8     9   ar
    43     9    10   ar
    44    10    11    1
    45    47    39   ar
    46    37    32   ar
    47    10     5   ar
    48    47    42   ar
    49    17    12    1
    50    26    19   ar
    51     3     4    1
    52    41    48    1
    53    30    31    1
@<TRIPOS>MOLECULE
*****
 48 53 0 0 0
SMALL
GASTEIGER

@<TRIPOS>ATOM
      1 O          60.1883   84.0952   10.0168 O.2     1  UNL1       -0.2701
      2 C          59.8725   85.2946   10.2487 C.2     1  UNL1        0.2483
      3 N          59.5675   85.7042   11.5915 N.am    1  UNL1       -0.2945
      4 H          59.5468   86.7254   11.8136 H       1  UNL1        0.1501
      5 C          59.8566   86.2686    9.1339 C.ar    1  UNL1        0.0808
      6 C          59.0274   86.0391    8.0252 C.ar    1  UNL1        0.0080
      7 C          58.9983   86.9407    6.9588 C.ar    1  UNL1        0.0148
      8 C          59.7920   88.1035    6.9768 C.ar    1  UNL1        0.0510
      9 C          60.6090   88.3383    8.0991 C.ar    1  UNL1        0.0443
     10 C          60.6402   87.4367    9.1675 C.ar    1  UNL1        0.1457
     11 F          61.3979   87.7388   10.2522 F       1  UNL1       -0.2040
     12 N          59.7610   89.0392    5.8691 N.pl3   1  UNL1       -0.2930
     13 C          58.5066   89.7372    5.5374 C.3     1  UNL1        0.1132
     14 C          58.7472   90.9629    4.6500 C.3     1  UNL1        0.1123
     15 N          59.5815   90.6234    3.4877 N.pl3   1  UNL1       -0.3031
     16 C          60.5588   89.5274    3.5773 C.3     1  UNL1        0.1277
     17 C          60.9561   89.2439    5.0317 C.3     1  UNL1        0.1738
     18 CL         61.9353   90.5960    5.6761 Cl      1  UNL1       -0.0910
     19 C          59.4693   91.3896    2.2671 C.ar    1  UNL1        0.0489
     20 C          60.2905   92.5105    2.0479 C.ar    1  UNL1        0.0154
     21 C          60.1806   93.2511    0.8684 C.ar    1  UNL1        0.0135
     22 C          59.2506   92.8878   -0.1099 C.ar    1  UNL1        0.0683
     23 CL         59.1428   93.8455   -1.5807 Cl      1  UNL1       -0.0814
     24 C          58.4232   91.7724    0.0961 C.ar    1  UNL1        0.0694
     25 CL         57.2361   91.2846   -1.1063 Cl      1  UNL1       -0.0813
     26 C          58.5345   91.0305    1.2780 C.ar    1  UNL1        0.0268
     27 C          59.4654   84.7408   12.6913 C.3     1  UNL1        0.1535
     28 C          58.7496   83.5005   12.2216 C.2     1  UNL1        0.2443
     29 O          57.5228   83.5616   11.9347 O.2     1  UNL1       -0.2730
     30 N          59.4910   82.2887   12.0055 N.am    1  UNL1       -0.2825
     31 H          60.5345   82.3461   12.0230 H       1  UNL1        0.1549
     32 C          58.8965   81.0461   11.5980 C.ar    1  UNL1        0.0535
     33 C          58.3929   80.9182   10.2966 C.ar    1  UNL1        0.0353
     34 C          57.8321   79.7055    9.8892 C.ar    1  UNL1        0.1002
     35 N          57.7905   78.6514   10.7463 N.ar    1  UNL1       -0.2422
     36 C          58.2881   78.7397   12.0082 C.ar    1  UNL1        0.1002
     37 C          58.8564   79.9350   12.4563 C.ar    1  UNL1        0.0353
     38 C          60.8676   84.3935   13.2244 C.3     1  UNL1        0.0569
     39 C          61.2702   85.2983   14.3545 C.ar    1  UNL1       -0.0017
     40 C          60.8872   85.1784   15.6874 C.ar    1  UNL1        0.0681
     41 N          61.3366   86.2332   16.4048 N.ar    1  UNL1       -0.3523
     42 C          61.9888   87.0234   15.5343 C.ar    1  UNL1        0.0563
     43 C          62.6007   88.2477   15.7993 C.ar    1  UNL1        0.0170
     44 C          63.2027   88.9280   14.7250 C.ar    1  UNL1        0.0015
     45 C          63.1750   88.3783   13.4238 C.ar    1  UNL1        0.0001
     46 C          62.5465   87.1426   13.1853 C.ar    1  UNL1        0.0012
     47 C          61.9657   86.4883   14.2717 C.ar    1  UNL1        0.0131
     48 H          61.1840   86.4070   17.4230 H       1  UNL1        0.1660
@<TRIPOS>BOND
     1     1     2    2
     2     2     3   am
     3     3    27    1
     4    27    38    1
     5    38    39    1
     6    39    40   ar
     7    40    41   ar
     8    41    42   ar
     9    42    43   ar
    10    43    44   ar
    11    44    45   ar
    12    45    46   ar
    13    46    47   ar
    14    27    28    1
    15    28    29    2
    16    28    30   am
    17    30    32    1
    18    32    33   ar
    19    33    34   ar
    20    34    35   ar
    21    35    36   ar
    22    36    37   ar
    23     2     5    1
    24     5     6   ar
    25     6     7   ar
    26     7     8   ar
    27     8    12    1
    28    12    13    1
    29    13    14    1
    30    14    15    1
    31    15    19    1
    32    19    20   ar
    33    20    21   ar
    34    21    22   ar
    35    22    23    1
    36    22    24   ar
    37    24    25    1
    38    24    26   ar
    39    15    16    1
    40    16    17    1
    41    17    18    1
    42     8     9   ar
    43     9    10   ar
    44    10    11    1
    45    47    39   ar
    46    37    32   ar
    47    10     5   ar
    48    47    42   ar
    49    17    12    1
    50    26    19   ar
    51     3     4    1
    52    41    48    1
    53    30    31    1
@<TRIPOS>MOLECULE
*****
 48 53 0 0 0
SMALL
GASTEIGER

@<TRIPOS>ATOM
      1 O          63.8861   90.8717   12.2063 O.2     1  UNL1       -0.2701
      2 C          64.1187   89.6503   12.4212 C.2     1  UNL1        0.2483
      3 N          65.1367   89.2738   13.3623 N.am    1  UNL1       -0.2945
      4 H          65.1585   88.2892   13.7128 H       1  UNL1        0.1501
      5 C          63.3109   88.6248   11.7230 C.ar    1  UNL1        0.0808
      6 C          62.7561   87.5634   12.4545 C.ar    1  UNL1        0.0080
      7 C          61.9943   86.5810   11.8178 C.ar    1  UNL1        0.0148
      8 C          61.7580   86.6389   10.4311 C.ar    1  UNL1        0.0510
      9 C          62.3019   87.7152    9.7043 C.ar    1  UNL1        0.0443
     10 C          63.0654   88.6995   10.3396 C.ar    1  UNL1        0.1457
     11 F          63.5161   89.7483    9.6055 F       1  UNL1       -0.2040
     12 N          60.9668   85.6184    9.7707 N.pl3   1  UNL1       -0.2930
     13 C          60.1979   84.6546   10.5774 C.3     1  UNL1        0.1132
     14 C          59.1192   83.9449    9.7525 C.3     1  UNL1        0.1123
     15 N          59.6771   83.3914    8.5096 N.pl3   1  UNL1       -0.3031
     16 C          60.8423   84.0292    7.8772 C.3     1  UNL1        0.1277
     17 C          60.9818   85.4965    8.3023 C.3     1  UNL1        0.1738
     18 CL         59.6608   86.4711    7.5899 Cl      1  UNL1       -0.0910
     19 C          59.0594   82.2424    7.8872 C.ar    1  UNL1        0.0489
     20 C          57.7164   81.9198    8.1538 C.ar    1  UNL1        0.0154
     21 C          57.1205   80.8085    7.5526 C.ar    1  UNL1        0.0135
     22 C          57.8530   80.0006    6.6781 C.ar    1  UNL1        0.0683
     23 CL         57.0672   78.6106    5.9415 Cl      1  UNL1       -0.0814
     24 C          59.1950   80.3095    6.4040 C.ar    1  UNL1        0.0694
     25 CL         60.1539   79.3163    5.3146 Cl      1  UNL1       -0.0813
     26 C          59.7910   81.4237    7.0064 C.ar    1  UNL1        0.0268
     27 C          66.0249   90.2624   13.9802 C.3     1  UNL1        0.1535
     28 C          66.4501   91.2815   12.9545 C.2     1  UNL1        0.2443
     29 O          66.7831   92.4391   13.3292 O.2     1  UNL1       -0.2730
     30 N          66.5724   90.8965   11.5756 N.am    1  UNL1       -0.2825
     31 H          66.5213   89.8776   11.3477 H       1  UNL1        0.1549
     32 C          66.9311   91.8008   10.5187 C.ar    1  UNL1        0.0535
     33 C          67.9530   91.4471    9.6275 C.ar    1  UNL1        0.0353
     34 C          68.2919   92.3141    8.5860 C.ar    1  UNL1        0.1002
     35 N          67.6222   93.4865    8.4296 N.ar    1  UNL1       -0.2422
     36 C          66.6140   93.8478    9.2668 C.ar    1  UNL1        0.1002
     37 C          66.2443   93.0102   10.3224 C.ar    1  UNL1        0.0353
     38 C          65.3173   90.9435   15.1662 C.3     1  UNL1        0.0569
     39 C          64.0722   90.2039   15.5670 C.ar    1  UNL1       -0.0017
     40 C          62.9403   90.7516   16.1643 C.ar    1  UNL1        0.0681
     41 N          62.0629   89.7772   16.4956 N.ar    1  UNL1       -0.3523
     42 C          62.6361   88.6192   16.1242 C.ar    1  UNL1        0.0563
     43 C          62.1255   87.3325   16.2896 C.ar    1  UNL1        0.0170
     44 C          62.9134   86.2515   15.8537 C.ar    1  UNL1        0.0015
     45 C          64.1818   86.4779   15.2740 C.ar    1  UNL1        0.0001
     46 C          64.6732   87.7874   15.1234 C.ar    1  UNL1        0.0012
     47 C          63.8657   88.8386   15.5577 C.ar    1  UNL1        0.0131
     48 H          61.1395   89.9016   16.9671 H       1  UNL1        0.1660
@<TRIPOS>BOND
     1     1     2    2
     2     2     3   am
     3     3    27    1
     4    27    38    1
     5    38    39    1
     6    39    40   ar
     7    40    41   ar
     8    41    42   ar
     9    42    43   ar
    10    43    44   ar
    11    44    45   ar
    12    45    46   ar
    13    46    47   ar
    14    27    28    1
    15    28    29    2
    16    28    30   am
    17    30    32    1
    18    32    33   ar
    19    33    34   ar
    20    34    35   ar
    21    35    36   ar
    22    36    37   ar
    23     2     5    1
    24     5     6   ar
    25     6     7   ar
    26     7     8   ar
    27     8    12    1
    28    12    13    1
    29    13    14    1
    30    14    15    1
    31    15    19    1
    32    19    20   ar
    33    20    21   ar
    34    21    22   ar
    35    22    23    1
    36    22    24   ar
    37    24    25    1
    38    24    26   ar
    39    15    16    1
    40    16    17    1
    41    17    18    1
    42     8     9   ar
    43     9    10   ar
    44    10    11    1
    45    47    39   ar
    46    37    32   ar
    47    10     5   ar
    48    47    42   ar
    49    17    12    1
    50    26    19   ar
    51     3     4    1
    52    41    48    1
    53    30    31    1
