@<TRIPOS>MOLECULE
*****
 36 41 0 0 0
SMALL
GASTEIGER

@<TRIPOS>ATOM
      1 C          48.3369   11.7630  -25.4391 C.ar    1  UNL1        0.1095
      2 N          48.1627   11.8231  -26.7835 N.ar    1  UNL1       -0.1677
      3 N          46.8790   12.0688  -27.0210 N.ar    1  UNL1       -0.2319
      4 C          46.3152   12.2812  -28.3472 C.3     1  UNL1        0.1554
      5 C          46.2440   12.1881  -25.8444 C.ar    1  UNL1        0.1654
      6 N          44.9399   12.4967  -25.6443 N.ar    1  UNL1       -0.2050
      7 C          44.4881   12.5782  -24.3574 C.ar    1  UNL1        0.2014
      8 N          45.3309   12.3242  -23.3064 N.ar    1  UNL1       -0.2089
      9 C          46.6457   12.0087  -23.5034 C.ar    1  UNL1        0.1379
     10 C          47.1121   11.9779  -24.8195 C.ar    1  UNL1        0.0865
     11 C          50.5462   12.6377  -24.4779 C.ar    1  UNL1        0.0809
     12 C          49.6558   11.6309  -24.8047 C.ar    1  UNL1        0.0577
     13 C          50.2531   10.4646  -24.3671 C.ar    1  UNL1        0.1231
     14 N          51.4518   10.7549  -23.8249 N.ar    1  UNL1       -0.1676
     15 N          51.6286   12.0654  -23.9036 N.ar    1  UNL1       -0.2488
     16 C          52.8430   12.7320  -23.4456 C.3     1  UNL1        0.1537
     17 C          49.9276   18.2569  -25.7406 C.3     1  UNL1        0.0310
     18 C          50.1214   16.8071  -25.4090 C.ar    1  UNL1       -0.0218
     19 C          50.3406   15.8717  -26.4309 C.ar    1  UNL1       -0.0042
     20 C          50.4837   14.5153  -26.1260 C.ar    1  UNL1        0.0012
     21 C          50.3995   14.0745  -24.7956 C.ar    1  UNL1        0.0174
     22 C          50.1574   15.0082  -23.7768 C.ar    1  UNL1        0.0012
     23 C          50.0142   16.3648  -24.0820 C.ar    1  UNL1       -0.0042
     24 N          47.4644   11.6250  -22.3951 N.pl3   1  UNL1       -0.2917
     25 C          47.8233   10.2531  -22.1142 C.3     1  UNL1        0.0937
     26 C          48.5756   10.3149  -20.7955 C.3     1  UNL1        0.0391
     27 C          49.1391   11.7469  -20.6926 C.3     1  UNL1        0.0790
     28 C          48.2132   12.5797  -21.5974 C.3     1  UNL1        0.1081
     29 N          49.1605   12.2535  -19.2924 N.3     1  UNL1       -0.2723
     30 C          47.8049   12.6311  -18.8299 C.3     1  UNL1        0.0730
     31 C          47.8824   13.4033  -17.4986 C.3     1  UNL1        0.0279
     32 C          49.1434   13.0473  -16.6910 C.3     1  UNL1        0.0466
     33 S          48.9019   13.4211  -14.9228 S.3     1  UNL1       -0.1688
     34 C          49.4925   11.5696  -16.8761 C.3     1  UNL1        0.0279
     35 C          49.7343   11.2373  -18.3662 C.3     1  UNL1        0.0730
     36 H          48.7876   14.8055  -15.1534 H       1  UNL1        0.1023
@<TRIPOS>BOND
     1    17    18    1
     2    18    19   ar
     3    19    20   ar
     4    20    21   ar
     5    21    11    1
     6    11    12   ar
     7    12     1    1
     8     1     2   ar
     9     2     3   ar
    10     3     4    1
    11     3     5   ar
    12     5     6   ar
    13     6     7   ar
    14     7     8   ar
    15     8     9   ar
    16     9    24    1
    17    24    25    1
    18    25    26    1
    19    26    27    1
    20    27    29    1
    21    29    30    1
    22    30    31    1
    23    31    32    1
    24    32    33    1
    25    32    34    1
    26    34    35    1
    27    27    28    1
    28     9    10   ar
    29    12    13   ar
    30    13    14   ar
    31    14    15   ar
    32    15    16    1
    33    21    22   ar
    34    22    23   ar
    35    23    18   ar
    36    15    11   ar
    37    10     1   ar
    38    10     5   ar
    39    28    24    1
    40    35    29    1
    41    33    36    1
@<TRIPOS>MOLECULE
*****
 36 41 0 0 0
SMALL
GASTEIGER

@<TRIPOS>ATOM
      1 C          48.0579   16.6313  -24.3529 C.ar    1  UNL1        0.1095
      2 N          47.3001   17.7562  -24.3968 N.ar    1  UNL1       -0.1677
      3 N          47.9321   18.6481  -25.1516 N.ar    1  UNL1       -0.2319
      4 C          47.3950   19.9565  -25.5004 C.3     1  UNL1        0.1554
      5 C          49.0677   18.0939  -25.6045 C.ar    1  UNL1        0.1654
      6 N          49.9684   18.6468  -26.4523 N.ar    1  UNL1       -0.2050
      7 C          51.0634   17.9070  -26.7998 C.ar    1  UNL1        0.2014
      8 N          51.2511   16.6537  -26.2771 N.ar    1  UNL1       -0.2089
      9 C          50.3476   16.0936  -25.4186 C.ar    1  UNL1        0.1379
     10 C          49.2055   16.8355  -25.1088 C.ar    1  UNL1        0.0865
     11 C          47.0813   14.2617  -24.3147 C.ar    1  UNL1        0.0809
     12 C          47.6125   15.3869  -23.7105 C.ar    1  UNL1        0.0577
     13 C          47.6776   15.0780  -22.3656 C.ar    1  UNL1        0.1231
     14 N          47.1891   13.8377  -22.1699 N.ar    1  UNL1       -0.1676
     15 N          46.8211   13.3537  -23.3468 N.ar    1  UNL1       -0.2488
     16 C          46.2077   12.0398  -23.5088 C.3     1  UNL1        0.1537
     17 C          45.7482   13.6386  -29.9171 C.3     1  UNL1        0.0310
     18 C          46.1233   13.8142  -28.4756 C.ar    1  UNL1       -0.0218
     19 C          46.7588   12.7757  -27.7792 C.ar    1  UNL1       -0.0042
     20 C          47.0747   12.9246  -26.4260 C.ar    1  UNL1        0.0012
     21 C          46.7500   14.1104  -25.7479 C.ar    1  UNL1        0.0174
     22 C          46.0938   15.1395  -26.4398 C.ar    1  UNL1        0.0012
     23 C          45.7778   14.9904  -27.7934 C.ar    1  UNL1       -0.0042
     24 N          50.6356   14.8401  -24.7928 N.pl3   1  UNL1       -0.2917
     25 C          50.6239   13.5805  -25.5022 C.3     1  UNL1        0.0937
     26 C          50.8540   12.5317  -24.4271 C.3     1  UNL1        0.0391
     27 C          51.5855   13.2533  -23.2770 C.3     1  UNL1        0.0790
     28 C          51.2053   14.7335  -23.4614 C.3     1  UNL1        0.1081
     29 N          51.1940   12.7356  -21.9366 N.3     1  UNL1       -0.2723
     30 C          50.8747   13.8377  -20.9999 C.3     1  UNL1        0.0730
     31 C          50.7445   13.3042  -19.5601 C.3     1  UNL1        0.0279
     32 C          50.3365   11.8206  -19.5232 C.3     1  UNL1        0.0466
     33 S          49.5643   11.4052  -17.9244 S.3     1  UNL1       -0.1688
     34 C          49.3767   11.5053  -20.6716 C.3     1  UNL1        0.0279
     35 C          50.0238   11.8191  -22.0398 C.3     1  UNL1        0.0730
     36 H          50.7478   11.6527  -17.2026 H       1  UNL1        0.1023
@<TRIPOS>BOND
     1    17    18    1
     2    18    19   ar
     3    19    20   ar
     4    20    21   ar
     5    21    11    1
     6    11    12   ar
     7    12     1    1
     8     1     2   ar
     9     2     3   ar
    10     3     4    1
    11     3     5   ar
    12     5     6   ar
    13     6     7   ar
    14     7     8   ar
    15     8     9   ar
    16     9    24    1
    17    24    25    1
    18    25    26    1
    19    26    27    1
    20    27    29    1
    21    29    30    1
    22    30    31    1
    23    31    32    1
    24    32    33    1
    25    32    34    1
    26    34    35    1
    27    27    28    1
    28     9    10   ar
    29    12    13   ar
    30    13    14   ar
    31    14    15   ar
    32    15    16    1
    33    21    22   ar
    34    22    23   ar
    35    23    18   ar
    36    15    11   ar
    37    10     1   ar
    38    10     5   ar
    39    28    24    1
    40    35    29    1
    41    33    36    1
@<TRIPOS>MOLECULE
*****
 36 41 0 0 0
SMALL
GASTEIGER

@<TRIPOS>ATOM
      1 C          49.4923   11.1013  -26.2968 C.ar    1  UNL1        0.1095
      2 N          49.4268   10.1019  -27.2125 N.ar    1  UNL1       -0.1677
      3 N          50.6577    9.8672  -27.6532 N.ar    1  UNL1       -0.2319
      4 C          51.0061    8.8085  -28.5912 C.3     1  UNL1        0.1554
      5 C          51.5033   10.6886  -27.0114 C.ar    1  UNL1        0.1654
      6 N          52.8528   10.7289  -27.1264 N.ar    1  UNL1       -0.2050
      7 C          53.5359   11.6410  -26.3726 C.ar    1  UNL1        0.2014
      8 N          52.8636   12.5061  -25.5486 N.ar    1  UNL1       -0.2089
      9 C          51.5026   12.4720  -25.4323 C.ar    1  UNL1        0.1379
     10 C          50.8160   11.5027  -26.1671 C.ar    1  UNL1        0.0865
     11 C          47.1065   11.9779  -25.9653 C.ar    1  UNL1        0.0809
     12 C          48.3359   11.5424  -25.5045 C.ar    1  UNL1        0.0577
     13 C          48.2351   11.5683  -24.1270 C.ar    1  UNL1        0.1231
     14 N          47.0138   12.0181  -23.7787 N.ar    1  UNL1       -0.1676
     15 N          46.3407   12.2737  -24.8906 N.ar    1  UNL1       -0.2488
     16 C          44.9867   12.8173  -24.8923 C.3     1  UNL1        0.1537
     17 C          45.6576   12.8330  -31.5080 C.3     1  UNL1        0.0310
     18 C          45.9998   12.6058  -30.0655 C.ar    1  UNL1       -0.0218
     19 C          46.0731   13.6891  -29.1776 C.ar    1  UNL1       -0.0042
     20 C          46.4286   13.4826  -27.8419 C.ar    1  UNL1        0.0012
     21 C          46.7256   12.1911  -27.3781 C.ar    1  UNL1        0.0174
     22 C          46.6742   11.1115  -28.2727 C.ar    1  UNL1        0.0012
     23 C          46.3186   11.3182  -29.6088 C.ar    1  UNL1       -0.0042
     24 N          50.8238   13.4694  -24.6642 N.pl3   1  UNL1       -0.2917
     25 C          50.5936   13.3519  -23.2418 C.3     1  UNL1        0.0937
     26 C          49.7405   14.5588  -22.8894 C.3     1  UNL1        0.0391
     27 C          50.0295   15.6166  -23.9739 C.3     1  UNL1        0.0790
     28 C          50.5230   14.7939  -25.1777 C.3     1  UNL1        0.1081
     29 N          48.8314   16.4361  -24.3068 N.3     1  UNL1       -0.2723
     30 C          49.1558   17.5025  -25.2822 C.3     1  UNL1        0.0730
     31 C          47.9880   18.5008  -25.4018 C.3     1  UNL1        0.0279
     32 C          46.6348   17.8598  -25.0453 C.3     1  UNL1        0.0466
     33 S          45.2622   18.7921  -25.8013 S.3     1  UNL1       -0.1688
     34 C          46.6005   16.4016  -25.5060 C.3     1  UNL1        0.0279
     35 C          47.7368   15.5841  -24.8507 C.3     1  UNL1        0.0730
     36 H          45.5253   19.9458  -25.0379 H       1  UNL1        0.1023
@<TRIPOS>BOND
     1    17    18    1
     2    18    19   ar
     3    19    20   ar
     4    20    21   ar
     5    21    11    1
     6    11    12   ar
     7    12     1    1
     8     1     2   ar
     9     2     3   ar
    10     3     4    1
    11     3     5   ar
    12     5     6   ar
    13     6     7   ar
    14     7     8   ar
    15     8     9   ar
    16     9    24    1
    17    24    25    1
    18    25    26    1
    19    26    27    1
    20    27    29    1
    21    29    30    1
    22    30    31    1
    23    31    32    1
    24    32    33    1
    25    32    34    1
    26    34    35    1
    27    27    28    1
    28     9    10   ar
    29    12    13   ar
    30    13    14   ar
    31    14    15   ar
    32    15    16    1
    33    21    22   ar
    34    22    23   ar
    35    23    18   ar
    36    15    11   ar
    37    10     1   ar
    38    10     5   ar
    39    28    24    1
    40    35    29    1
    41    33    36    1
@<TRIPOS>MOLECULE
*****
 36 41 0 0 0
SMALL
GASTEIGER

@<TRIPOS>ATOM
      1 C          48.2984   12.7172  -25.4174 C.ar    1  UNL1        0.1095
      2 N          47.2271   12.6370  -26.2465 N.ar    1  UNL1       -0.1677
      3 N          47.2262   13.7155  -27.0221 N.ar    1  UNL1       -0.2319
      4 C          46.2728   13.9527  -28.0977 C.3     1  UNL1        0.1554
      5 C          48.2956   14.4646  -26.7105 C.ar    1  UNL1        0.1654
      6 N          48.6929   15.6144  -27.3069 N.ar    1  UNL1       -0.2050
      7 C          49.8242   16.2232  -26.8415 C.ar    1  UNL1        0.2014
      8 N          50.5138   15.6935  -25.7817 N.ar    1  UNL1       -0.2089
      9 C          50.1146   14.5364  -25.1744 C.ar    1  UNL1        0.1379
     10 C          48.9869   13.8929  -25.6890 C.ar    1  UNL1        0.0865
     11 C          49.6793   10.6860  -24.6843 C.ar    1  UNL1        0.0809
     12 C          48.6897   11.6353  -24.5032 C.ar    1  UNL1        0.0577
     13 C          48.1676   11.3781  -23.2503 C.ar    1  UNL1        0.1231
     14 N          48.7974   10.3137  -22.7159 N.ar    1  UNL1       -0.1676
     15 N          49.7009    9.8935  -23.5888 N.ar    1  UNL1       -0.2488
     16 C          50.5464    8.7271  -23.3576 C.3     1  UNL1        0.1537
     17 C          52.9173    9.9116  -29.4244 C.3     1  UNL1        0.0310
     18 C          52.0608   10.1361  -28.2138 C.ar    1  UNL1       -0.0218
     19 C          52.4642   11.0408  -27.2208 C.ar    1  UNL1       -0.0042
     20 C          51.6854   11.2226  -26.0747 C.ar    1  UNL1        0.0012
     21 C          50.4976   10.4944  -25.9011 C.ar    1  UNL1        0.0174
     22 C          50.1070    9.5730  -26.8844 C.ar    1  UNL1        0.0012
     23 C          50.8862    9.3912  -28.0307 C.ar    1  UNL1       -0.0042
     24 N          50.7803   14.0805  -23.9934 N.pl3   1  UNL1       -0.2917
     25 C          52.0875   13.4633  -24.0103 C.3     1  UNL1        0.0937
     26 C          52.3279   13.0327  -22.5732 C.3     1  UNL1        0.0391
     27 C          51.4453   13.9480  -21.7003 C.3     1  UNL1        0.0790
     28 C          50.3294   14.4123  -22.6536 C.3     1  UNL1        0.1081
     29 N          50.9053   13.2479  -20.5020 N.3     1  UNL1       -0.2723
     30 C          51.7786   13.4388  -19.3210 C.3     1  UNL1        0.0730
     31 C          51.3599   12.4927  -18.1790 C.3     1  UNL1        0.0279
     32 C          49.8734   12.1021  -18.2616 C.3     1  UNL1        0.0466
     33 S          49.2561   11.5710  -16.6301 S.3     1  UNL1       -0.1688
     34 C          49.0442   13.2765  -18.7839 C.3     1  UNL1        0.0279
     35 C          49.5295   13.7221  -20.1821 C.3     1  UNL1        0.0730
     36 H          50.1032   10.4469  -16.5913 H       1  UNL1        0.1023
@<TRIPOS>BOND
     1    17    18    1
     2    18    19   ar
     3    19    20   ar
     4    20    21   ar
     5    21    11    1
     6    11    12   ar
     7    12     1    1
     8     1     2   ar
     9     2     3   ar
    10     3     4    1
    11     3     5   ar
    12     5     6   ar
    13     6     7   ar
    14     7     8   ar
    15     8     9   ar
    16     9    24    1
    17    24    25    1
    18    25    26    1
    19    26    27    1
    20    27    29    1
    21    29    30    1
    22    30    31    1
    23    31    32    1
    24    32    33    1
    25    32    34    1
    26    34    35    1
    27    27    28    1
    28     9    10   ar
    29    12    13   ar
    30    13    14   ar
    31    14    15   ar
    32    15    16    1
    33    21    22   ar
    34    22    23   ar
    35    23    18   ar
    36    15    11   ar
    37    10     1   ar
    38    10     5   ar
    39    28    24    1
    40    35    29    1
    41    33    36    1
@<TRIPOS>MOLECULE
*****
 36 41 0 0 0
SMALL
GASTEIGER

@<TRIPOS>ATOM
      1 C          48.6484   13.2704  -25.4136 C.ar    1  UNL1        0.1095
      2 N          48.3951   13.8293  -26.6239 N.ar    1  UNL1       -0.1677
      3 N          47.0824   13.7967  -26.8250 N.ar    1  UNL1       -0.2319
      4 C          46.4143   14.3762  -27.9824 C.3     1  UNL1        0.1554
      5 C          46.5006   13.2460  -25.7479 C.ar    1  UNL1        0.1654
      6 N          45.1740   13.0826  -25.5264 N.ar    1  UNL1       -0.2050
      7 C          44.7842   12.5028  -24.3521 C.ar    1  UNL1        0.2014
      8 N          45.7175   12.0752  -23.4436 N.ar    1  UNL1       -0.2089
      9 C          47.0566   12.2341  -23.6644 C.ar    1  UNL1        0.1379
     10 C          47.4450   12.8741  -24.8435 C.ar    1  UNL1        0.0865
     11 C          51.0694   12.4676  -25.1596 C.ar    1  UNL1        0.0809
     12 C          49.9847   13.2481  -24.8026 C.ar    1  UNL1        0.0577
     13 C          50.4368   14.0425  -23.7667 C.ar    1  UNL1        0.1231
     14 N          51.7220   13.7380  -23.5009 N.ar    1  UNL1       -0.1676
     15 N          52.0958   12.7805  -24.3365 N.ar    1  UNL1       -0.2488
     16 C          53.4227   12.1743  -24.3078 C.3     1  UNL1        0.1537
     17 C          51.0845    8.3117  -29.1946 C.3     1  UNL1        0.0310
     18 C          51.0982    9.3670  -28.1289 C.ar    1  UNL1       -0.0218
     19 C          50.0280    9.4760  -27.2288 C.ar    1  UNL1       -0.0042
     20 C          50.0223   10.4828  -26.2594 C.ar    1  UNL1        0.0012
     21 C          51.0820   11.4007  -26.1835 C.ar    1  UNL1        0.0174
     22 C          52.1407   11.3046  -27.0991 C.ar    1  UNL1        0.0012
     23 C          52.1463   10.2976  -28.0687 C.ar    1  UNL1       -0.0042
     24 N          48.0049   11.6635  -22.7584 N.pl3   1  UNL1       -0.2917
     25 C          48.6398   10.3838  -22.9801 C.3     1  UNL1        0.0937
     26 C          49.4509   10.1336  -21.7198 C.3     1  UNL1        0.0391
     27 C          49.7326   11.5225  -21.1113 C.3     1  UNL1        0.0790
     28 C          48.6059   12.4111  -21.6683 C.3     1  UNL1        0.1081
     29 N          49.7475   11.5019  -19.6223 N.3     1  UNL1       -0.2723
     30 C          50.6141   12.5698  -19.0722 C.3     1  UNL1        0.0730
     31 C          50.8366   12.3625  -17.5616 C.3     1  UNL1        0.0279
     32 C          49.6836   11.5829  -16.9044 C.3     1  UNL1        0.0466
     33 S          49.6212   11.9151  -15.1126 S.3     1  UNL1       -0.1688
     34 C          48.3514   11.9546  -17.5577 C.3     1  UNL1        0.0279
     35 C          48.3705   11.6498  -19.0730 C.3     1  UNL1        0.0730
     36 H          50.8735   11.3143  -14.8810 H       1  UNL1        0.1023
@<TRIPOS>BOND
     1    17    18    1
     2    18    19   ar
     3    19    20   ar
     4    20    21   ar
     5    21    11    1
     6    11    12   ar
     7    12     1    1
     8     1     2   ar
     9     2     3   ar
    10     3     4    1
    11     3     5   ar
    12     5     6   ar
    13     6     7   ar
    14     7     8   ar
    15     8     9   ar
    16     9    24    1
    17    24    25    1
    18    25    26    1
    19    26    27    1
    20    27    29    1
    21    29    30    1
    22    30    31    1
    23    31    32    1
    24    32    33    1
    25    32    34    1
    26    34    35    1
    27    27    28    1
    28     9    10   ar
    29    12    13   ar
    30    13    14   ar
    31    14    15   ar
    32    15    16    1
    33    21    22   ar
    34    22    23   ar
    35    23    18   ar
    36    15    11   ar
    37    10     1   ar
    38    10     5   ar
    39    28    24    1
    40    35    29    1
    41    33    36    1
@<TRIPOS>MOLECULE
*****
 36 41 0 0 0
SMALL
GASTEIGER

@<TRIPOS>ATOM
      1 C          48.5590   13.4472  -21.5838 C.ar    1  UNL1        0.1095
      2 N          49.3124   13.5660  -20.4614 N.ar    1  UNL1       -0.1677
      3 N          49.3243   12.3878  -19.8480 N.ar    1  UNL1       -0.2319
      4 C          50.0927   12.0959  -18.6454 C.3     1  UNL1        0.1554
      5 C          48.6081   11.5198  -20.5797 C.ar    1  UNL1        0.1654
      6 N          48.4213   10.2002  -20.3356 N.ar    1  UNL1       -0.2050
      7 C          47.6587    9.4847  -21.2149 C.ar    1  UNL1        0.2014
      8 N          47.0790   10.0999  -22.2942 N.ar    1  UNL1       -0.2089
      9 C          47.2611   11.4312  -22.5423 C.ar    1  UNL1        0.1379
     10 C          48.0839   12.1444  -21.6676 C.ar    1  UNL1        0.0865
     11 C          49.1854   14.7242  -23.7162 C.ar    1  UNL1        0.0809
     12 C          48.4249   14.5202  -22.5789 C.ar    1  UNL1        0.0577
     13 C          47.4744   15.5225  -22.5955 C.ar    1  UNL1        0.1231
     14 N          47.6688   16.3022  -23.6769 N.ar    1  UNL1       -0.1676
     15 N          48.7082   15.8229  -24.3439 N.ar    1  UNL1       -0.2488
     16 C          49.2307   16.4463  -25.5552 C.3     1  UNL1        0.1537
     17 C          53.8720   11.7312  -25.3381 C.3     1  UNL1        0.0310
     18 C          52.6448   12.4773  -24.9056 C.ar    1  UNL1       -0.0218
     19 C          51.5817   12.6679  -25.8005 C.ar    1  UNL1       -0.0042
     20 C          50.4539   13.3953  -25.4103 C.ar    1  UNL1        0.0012
     21 C          50.3783   13.9508  -24.1231 C.ar    1  UNL1        0.0174
     22 C          51.4522   13.7788  -23.2367 C.ar    1  UNL1        0.0012
     23 C          52.5802   13.0513  -23.6272 C.ar    1  UNL1       -0.0042
     24 N          46.5407   12.0679  -23.6013 N.pl3   1  UNL1       -0.2917
     25 C          45.2303   12.6529  -23.4266 C.3     1  UNL1        0.0937
     26 C          44.8133   13.0854  -24.8222 C.3     1  UNL1        0.0391
     27 C          46.1209   13.2879  -25.6145 C.3     1  UNL1        0.0790
     28 C          47.1463   12.4087  -24.8762 C.3     1  UNL1        0.1081
     29 N          45.9851   12.9091  -27.0483 N.3     1  UNL1       -0.2723
     30 C          46.4250   14.0037  -27.9441 C.3     1  UNL1        0.0730
     31 C          46.0222   13.7059  -29.4014 C.3     1  UNL1        0.0279
     32 C          45.8854   12.1968  -29.6713 C.3     1  UNL1        0.0466
     33 S          46.0697   11.8420  -31.4504 S.3     1  UNL1       -0.1688
     34 C          46.9263   11.4171  -28.8661 C.3     1  UNL1        0.0279
     35 C          46.7670   11.6774  -27.3509 C.3     1  UNL1        0.0730
     36 H          44.9034   12.5541  -31.7903 H       1  UNL1        0.1023
@<TRIPOS>BOND
     1    17    18    1
     2    18    19   ar
     3    19    20   ar
     4    20    21   ar
     5    21    11    1
     6    11    12   ar
     7    12     1    1
     8     1     2   ar
     9     2     3   ar
    10     3     4    1
    11     3     5   ar
    12     5     6   ar
    13     6     7   ar
    14     7     8   ar
    15     8     9   ar
    16     9    24    1
    17    24    25    1
    18    25    26    1
    19    26    27    1
    20    27    29    1
    21    29    30    1
    22    30    31    1
    23    31    32    1
    24    32    33    1
    25    32    34    1
    26    34    35    1
    27    27    28    1
    28     9    10   ar
    29    12    13   ar
    30    13    14   ar
    31    14    15   ar
    32    15    16    1
    33    21    22   ar
    34    22    23   ar
    35    23    18   ar
    36    15    11   ar
    37    10     1   ar
    38    10     5   ar
    39    28    24    1
    40    35    29    1
    41    33    36    1
@<TRIPOS>MOLECULE
*****
 36 41 0 0 0
SMALL
GASTEIGER

@<TRIPOS>ATOM
      1 C          50.8757   12.0205  -23.7513 C.ar    1  UNL1        0.1095
      2 N          51.5990   12.1592  -24.8911 N.ar    1  UNL1       -0.1677
      3 N          51.7215   10.9597  -25.4486 N.ar    1  UNL1       -0.2319
      4 C          52.3682   10.7119  -26.7300 C.3     1  UNL1        0.1554
      5 C          51.0655   10.0685  -24.6888 C.ar    1  UNL1        0.1654
      6 N          50.8966    8.7471  -24.9363 N.ar    1  UNL1       -0.2050
      7 C          50.1829    8.0095  -24.0343 C.ar    1  UNL1        0.2014
      8 N          49.6814    8.5930  -22.8997 N.ar    1  UNL1       -0.2089
      9 C          49.8525    9.9243  -22.6438 C.ar    1  UNL1        0.1379
     10 C          50.5388   10.6817  -23.5958 C.ar    1  UNL1        0.0865
     11 C          49.3995   14.0408  -23.1949 C.ar    1  UNL1        0.0809
     12 C          50.4346   13.1605  -22.9357 C.ar    1  UNL1        0.0577
     13 C          50.9469   13.5550  -21.7149 C.ar    1  UNL1        0.1231
     14 N          50.2675   14.6317  -21.2743 N.ar    1  UNL1       -0.1676
     15 N          49.3423   14.9272  -22.1752 N.ar    1  UNL1       -0.2488
     16 C          48.4417   16.0676  -22.0443 C.3     1  UNL1        0.1537
     17 C          46.1151   14.2259  -27.9626 C.3     1  UNL1        0.0310
     18 C          46.9849   14.1537  -26.7428 C.ar    1  UNL1       -0.0218
     19 C          46.6352   13.3151  -25.6742 C.ar    1  UNL1       -0.0042
     20 C          47.4249   13.2756  -24.5219 C.ar    1  UNL1        0.0012
     21 C          48.5697   14.0818  -24.4182 C.ar    1  UNL1        0.0174
     22 C          48.9057   14.9371  -25.4784 C.ar    1  UNL1        0.0012
     23 C          48.1156   14.9766  -26.6310 C.ar    1  UNL1       -0.0042
     24 N          49.4288   10.4739  -21.3932 N.pl3   1  UNL1       -0.2917
     25 C          48.2721   11.3302  -21.2567 C.3     1  UNL1        0.0937
     26 C          48.2875   11.7680  -19.8018 C.3     1  UNL1        0.0391
     27 C          49.0723   10.6821  -19.0379 C.3     1  UNL1        0.0790
     28 C          49.9596   10.0332  -20.1155 C.3     1  UNL1        0.1081
     29 N          49.8724   11.2400  -17.9126 N.3     1  UNL1       -0.2723
     30 C          50.7669   12.3289  -18.3686 C.3     1  UNL1        0.0730
     31 C          51.7749   12.7004  -17.2639 C.3     1  UNL1        0.0279
     32 C          51.2422   12.3774  -15.8565 C.3     1  UNL1        0.0466
     33 S          52.0956   13.3845  -14.5986 S.3     1  UNL1       -0.1688
     34 C          49.7330   12.6184  -15.7920 C.3     1  UNL1        0.0279
     35 C          48.9858   11.7489  -16.8287 C.3     1  UNL1        0.0730
     36 H          53.3419   12.7795  -14.8507 H       1  UNL1        0.1023
@<TRIPOS>BOND
     1    17    18    1
     2    18    19   ar
     3    19    20   ar
     4    20    21   ar
     5    21    11    1
     6    11    12   ar
     7    12     1    1
     8     1     2   ar
     9     2     3   ar
    10     3     4    1
    11     3     5   ar
    12     5     6   ar
    13     6     7   ar
    14     7     8   ar
    15     8     9   ar
    16     9    24    1
    17    24    25    1
    18    25    26    1
    19    26    27    1
    20    27    29    1
    21    29    30    1
    22    30    31    1
    23    31    32    1
    24    32    33    1
    25    32    34    1
    26    34    35    1
    27    27    28    1
    28     9    10   ar
    29    12    13   ar
    30    13    14   ar
    31    14    15   ar
    32    15    16    1
    33    21    22   ar
    34    22    23   ar
    35    23    18   ar
    36    15    11   ar
    37    10     1   ar
    38    10     5   ar
    39    28    24    1
    40    35    29    1
    41    33    36    1
@<TRIPOS>MOLECULE
*****
 36 41 0 0 0
SMALL
GASTEIGER

@<TRIPOS>ATOM
      1 C          47.5159   15.3142  -24.2855 C.ar    1  UNL1        0.1095
      2 N          46.4407   16.0373  -24.6887 N.ar    1  UNL1       -0.1677
      3 N          46.8543   16.9202  -25.5909 N.ar    1  UNL1       -0.2319
      4 C          45.9745   17.8274  -26.3155 C.3     1  UNL1        0.1554
      5 C          48.1721   16.7492  -25.7807 C.ar    1  UNL1        0.1654
      6 N          48.9659   17.4069  -26.6599 N.ar    1  UNL1       -0.2050
      7 C          50.2907   17.0754  -26.7034 C.ar    1  UNL1        0.2014
      8 N          50.7982   16.1239  -25.8571 N.ar    1  UNL1       -0.2089
      9 C          50.0025   15.4608  -24.9659 C.ar    1  UNL1        0.1379
     10 C          48.6401   15.7688  -24.9634 C.ar    1  UNL1        0.0865
     11 C          47.3012   12.8229  -23.7219 C.ar    1  UNL1        0.0809
     12 C          47.4147   14.1591  -23.3827 C.ar    1  UNL1        0.0577
     13 C          47.4564   14.1789  -22.0020 C.ar    1  UNL1        0.1231
     14 N          47.3507   12.9194  -21.5356 N.ar    1  UNL1       -0.1676
     15 N          47.2468   12.1063  -22.5763 N.ar    1  UNL1       -0.2488
     16 C          47.0749   10.6635  -22.4431 C.3     1  UNL1        0.1537
     17 C          46.7131   10.7210  -29.0874 C.3     1  UNL1        0.0310
     18 C          46.8628   11.2333  -27.6857 C.ar    1  UNL1       -0.0218
     19 C          45.7391   11.6718  -26.9699 C.ar    1  UNL1       -0.0042
     20 C          45.8826   12.1844  -25.6777 C.ar    1  UNL1        0.0012
     21 C          47.1533   12.2750  -25.0874 C.ar    1  UNL1        0.0174
     22 C          48.2790   11.8573  -25.8131 C.ar    1  UNL1        0.0012
     23 C          48.1353   11.3446  -27.1057 C.ar    1  UNL1       -0.0042
     24 N          50.5843   14.5685  -24.0115 N.pl3   1  UNL1       -0.2917
     25 C          51.2057   13.3152  -24.3766 C.3     1  UNL1        0.0937
     26 C          51.5561   12.6596  -23.0514 C.3     1  UNL1        0.0391
     27 C          51.6809   13.8065  -22.0279 C.3     1  UNL1        0.0790
     28 C          50.8303   14.9397  -22.6295 C.3     1  UNL1        0.1081
     29 N          51.2136   13.4139  -20.6695 N.3     1  UNL1       -0.2723
     30 C          50.5220   12.1042  -20.6897 C.3     1  UNL1        0.0730
     31 C          49.8102   11.8467  -19.3475 C.3     1  UNL1        0.0279
     32 C          50.4747   12.6004  -18.1816 C.3     1  UNL1        0.0466
     33 S          50.0769   11.8038  -16.5903 S.3     1  UNL1       -0.1688
     34 C          51.9903   12.6560  -18.3806 C.3     1  UNL1        0.0279
     35 C          52.3517   13.3579  -19.7095 C.3     1  UNL1        0.0730
     36 H          48.7036   12.0947  -16.7018 H       1  UNL1        0.1023
@<TRIPOS>BOND
     1    17    18    1
     2    18    19   ar
     3    19    20   ar
     4    20    21   ar
     5    21    11    1
     6    11    12   ar
     7    12     1    1
     8     1     2   ar
     9     2     3   ar
    10     3     4    1
    11     3     5   ar
    12     5     6   ar
    13     6     7   ar
    14     7     8   ar
    15     8     9   ar
    16     9    24    1
    17    24    25    1
    18    25    26    1
    19    26    27    1
    20    27    29    1
    21    29    30    1
    22    30    31    1
    23    31    32    1
    24    32    33    1
    25    32    34    1
    26    34    35    1
    27    27    28    1
    28     9    10   ar
    29    12    13   ar
    30    13    14   ar
    31    14    15   ar
    32    15    16    1
    33    21    22   ar
    34    22    23   ar
    35    23    18   ar
    36    15    11   ar
    37    10     1   ar
    38    10     5   ar
    39    28    24    1
    40    35    29    1
    41    33    36    1
@<TRIPOS>MOLECULE
*****
 36 41 0 0 0
SMALL
GASTEIGER

@<TRIPOS>ATOM
      1 C          50.3416   12.4239  -24.3274 C.ar    1  UNL1        0.1095
      2 N          51.2649   12.7909  -25.2516 N.ar    1  UNL1       -0.1677
      3 N          51.7918   11.6859  -25.7673 N.ar    1  UNL1       -0.2319
      4 C          52.7665   11.6686  -26.8497 C.3     1  UNL1        0.1554
      5 C          51.1972   10.6254  -25.1984 C.ar    1  UNL1        0.1654
      6 N          51.4032    9.3176  -25.4866 N.ar    1  UNL1       -0.2050
      7 C          50.6845    8.3850  -24.7935 C.ar    1  UNL1        0.2014
      8 N          49.8043    8.7703  -23.8157 N.ar    1  UNL1       -0.2089
      9 C          49.5962   10.0877  -23.5187 C.ar    1  UNL1        0.1379
     10 C          50.2964   11.0366  -24.2670 C.ar    1  UNL1        0.0865
     11 C          48.2725   13.9182  -24.0912 C.ar    1  UNL1        0.0809
     12 C          49.4662   13.3839  -23.6408 C.ar    1  UNL1        0.0577
     13 C          49.6455   13.9144  -22.3779 C.ar    1  UNL1        0.1231
     14 N          48.6217   14.7429  -22.0939 N.ar    1  UNL1       -0.1676
     15 N          47.8018   14.7499  -23.1343 N.ar    1  UNL1       -0.2488
     16 C          46.5986   15.5732  -23.1920 C.3     1  UNL1        0.1537
     17 C          45.9438   13.1013  -29.3317 C.3     1  UNL1        0.0310
     18 C          46.5159   13.3219  -27.9629 C.ar    1  UNL1       -0.0218
     19 C          47.0812   14.5601  -27.6245 C.ar    1  UNL1       -0.0042
     20 C          47.6482   14.7545  -26.3620 C.ar    1  UNL1        0.0012
     21 C          47.6668   13.7099  -25.4241 C.ar    1  UNL1        0.0174
     22 C          47.1214   12.4649  -25.7719 C.ar    1  UNL1        0.0012
     23 C          46.5543   12.2706  -27.0348 C.ar    1  UNL1       -0.0042
     24 N          48.7694   10.4502  -22.4093 N.pl3   1  UNL1       -0.2917
     25 C          47.4573   11.0382  -22.5594 C.3     1  UNL1        0.0937
     26 C          47.0194   11.3679  -21.1423 C.3     1  UNL1        0.0391
     27 C          47.8087   10.4168  -20.2198 C.3     1  UNL1        0.0790
     28 C          49.0524   10.0409  -21.0452 C.3     1  UNL1        0.1081
     29 N          48.1671   11.0482  -18.9196 N.3     1  UNL1       -0.2723
     30 C          49.6340   11.1879  -18.7689 C.3     1  UNL1        0.0730
     31 C          49.9951   11.5802  -17.3231 C.3     1  UNL1        0.0279
     32 C          48.8491   12.3287  -16.6190 C.3     1  UNL1        0.0466
     33 S          49.4886   13.3292  -15.2352 S.3     1  UNL1       -0.1688
     34 C          48.1054   13.2191  -17.6158 C.3     1  UNL1        0.0279
     35 C          47.5257   12.3859  -18.7816 C.3     1  UNL1        0.0730
     36 H          49.9114   12.1969  -14.5127 H       1  UNL1        0.1023
@<TRIPOS>BOND
     1    17    18    1
     2    18    19   ar
     3    19    20   ar
     4    20    21   ar
     5    21    11    1
     6    11    12   ar
     7    12     1    1
     8     1     2   ar
     9     2     3   ar
    10     3     4    1
    11     3     5   ar
    12     5     6   ar
    13     6     7   ar
    14     7     8   ar
    15     8     9   ar
    16     9    24    1
    17    24    25    1
    18    25    26    1
    19    26    27    1
    20    27    29    1
    21    29    30    1
    22    30    31    1
    23    31    32    1
    24    32    33    1
    25    32    34    1
    26    34    35    1
    27    27    28    1
    28     9    10   ar
    29    12    13   ar
    30    13    14   ar
    31    14    15   ar
    32    15    16    1
    33    21    22   ar
    34    22    23   ar
    35    23    18   ar
    36    15    11   ar
    37    10     1   ar
    38    10     5   ar
    39    28    24    1
    40    35    29    1
    41    33    36    1
