@<TRIPOS>MOLECULE
*****
 41 45 0 0 0
SMALL
GASTEIGER

@<TRIPOS>ATOM
      1 C         -10.0511  -11.9953   31.2741 C.ar    1  UNL1        0.2018
      2 N         -10.0707  -13.1249   30.5170 N.ar    1  UNL1       -0.2135
      3 C          -8.9882  -12.9826   29.7331 C.ar    1  UNL1        0.0999
      4 C          -8.5092  -13.8884   28.7777 C.ar    1  UNL1        0.0282
      5 C          -7.3133  -13.5693   28.0852 C.ar    1  UNL1        0.0888
      6 C          -6.6505  -12.3641   28.4238 C.ar    1  UNL1        0.1401
      7 C          -7.1512  -11.4875   29.3587 C.ar    1  UNL1        0.0327
      8 C          -8.3407  -11.8099   30.0174 C.ar    1  UNL1        0.0789
      9 N          -9.0114  -11.1630   30.9890 N.ar    1  UNL1       -0.2977
     10 C          -8.6599   -9.9025   31.6422 C.3     1  UNL1        0.1332
     11 C          -6.2288  -10.3301   29.5193 C.3     1  UNL1        0.0709
     12 C          -5.0606  -10.6852   28.5418 C.3     1  UNL1        0.1375
     13 C          -3.7404  -10.8814   29.2992 C.3     1  UNL1        0.0439
     14 C          -4.8978   -9.6189   27.4502 C.3     1  UNL1        0.0439
     15 O          -5.4389  -11.9220   27.9345 O.3     1  UNL1       -0.4824
     16 C          -6.7688  -14.5036   27.0771 C.2     1  UNL1        0.2525
     17 O          -5.9981  -15.4269   27.4563 O.2     1  UNL1       -0.2697
     18 N          -7.1070  -14.3667   25.6846 N.am    1  UNL1       -0.2803
     19 H          -7.7180  -13.5733   25.3901 H       1  UNL1        0.1552
     20 C          -6.5886  -15.2120   24.6442 C.ar    1  UNL1        0.0505
     21 C          -5.2082  -15.3153   24.4025 C.ar    1  UNL1        0.0147
     22 C          -4.7322  -16.1529   23.3917 C.ar    1  UNL1        0.0012
     23 C          -5.6229  -16.9117   22.6293 C.ar    1  UNL1        0.0039
     24 C          -7.0028  -16.8622   22.8910 C.ar    1  UNL1        0.0726
     25 C          -7.4769  -15.9966   23.8929 C.ar    1  UNL1        0.0185
     26 C          -7.9702  -17.6521   22.0456 C.3     1  UNL1        0.4186
     27 F          -7.3223  -18.2148   20.9596 F       1  UNL1       -0.1659
     28 F          -8.5250  -18.6605   22.8113 F       1  UNL1       -0.1659
     29 F          -8.9835  -16.8378   21.5699 F       1  UNL1       -0.1659
     30 N         -10.9975  -11.7570   32.3278 N.pl3   1  UNL1       -0.2815
     31 H         -11.3090  -10.7787   32.5133 H       1  UNL1        0.1551
     32 C         -12.9095  -14.5880   33.9064 C.ar    1  UNL1       -0.0103
     33 C         -12.1305  -14.8054   35.0540 C.ar    1  UNL1       -0.0010
     34 C         -10.9879  -14.0431   35.2905 C.ar    1  UNL1        0.0307
     35 C         -10.6126  -13.0425   34.3949 C.ar    1  UNL1        0.1543
     36 F          -9.4702  -12.3473   34.6251 F       1  UNL1       -0.2028
     37 C         -11.3918  -12.7834   33.2532 C.ar    1  UNL1        0.0886
     38 C         -12.5411  -13.5634   33.0029 C.ar    1  UNL1        0.0693
     39 CL        -13.5338  -13.2161   31.5829 Cl      1  UNL1       -0.0812
     40 C         -13.8851  -16.5706   32.7366 C.3     1  UNL1        0.0051
     41 C         -14.1534  -15.4205   33.7024 C.3     1  UNL1        0.0273
@<TRIPOS>BOND
     1    40    41    1
     2    41    32    1
     3    32    33   ar
     4    33    34   ar
     5    34    35   ar
     6    35    36    1
     7    35    37   ar
     8    37    30    1
     9    30     1    1
    10     1     2   ar
    11     2     3   ar
    12     3     4   ar
    13     4     5   ar
    14     5    16    1
    15    16    17    2
    16    16    18   am
    17    18    20    1
    18    20    21   ar
    19    21    22   ar
    20    22    23   ar
    21    23    24   ar
    22    24    26    1
    23    26    27    1
    24    26    28    1
    25    26    29    1
    26    24    25   ar
    27     5     6   ar
    28     6     7   ar
    29     7     8   ar
    30     8     9   ar
    31     9    10    1
    32     7    11    1
    33    11    12    1
    34    12    13    1
    35    12    14    1
    36    12    15    1
    37    37    38   ar
    38    38    39    1
    39    38    32   ar
    40     9     1   ar
    41     8     3   ar
    42    25    20   ar
    43    15     6    1
    44    30    31    1
    45    18    19    1
@<TRIPOS>MOLECULE
*****
 41 45 0 0 0
SMALL
GASTEIGER

@<TRIPOS>ATOM
      1 C          -8.2835  -15.7032   27.1534 C.ar    1  UNL1        0.2018
      2 N          -9.4225  -15.1958   27.6963 N.ar    1  UNL1       -0.2135
      3 C          -8.9884  -14.0984   28.3396 C.ar    1  UNL1        0.0999
      4 C          -9.7624  -13.1698   29.0477 C.ar    1  UNL1        0.0282
      5 C          -9.1131  -12.0449   29.6175 C.ar    1  UNL1        0.0888
      6 C          -7.7189  -11.9060   29.4090 C.ar    1  UNL1        0.1401
      7 C          -6.9822  -12.8408   28.7186 C.ar    1  UNL1        0.0327
      8 C          -7.6362  -13.9523   28.1804 C.ar    1  UNL1        0.0789
      9 N          -7.1693  -14.9729   27.4368 N.ar    1  UNL1       -0.2977
     10 C          -5.8007  -15.1991   26.9733 C.3     1  UNL1        0.1332
     11 C          -5.5585  -12.4130   28.6402 C.3     1  UNL1        0.0709
     12 C          -5.5755  -11.0314   29.3734 C.3     1  UNL1        0.1375
     13 C          -5.1893   -9.8909   28.4220 C.3     1  UNL1        0.0439
     14 C          -4.6571  -11.0366   30.6029 C.3     1  UNL1        0.0439
     15 O          -6.9266  -10.8467   29.7999 O.3     1  UNL1       -0.4824
     16 C          -9.8956  -11.0364   30.3632 C.2     1  UNL1        0.2525
     17 O         -10.1832  -11.2599   31.5705 O.2     1  UNL1       -0.2697
     18 N         -10.3266   -9.8187   29.7280 N.am    1  UNL1       -0.2803
     19 H         -10.1073   -9.6722   28.7180 H       1  UNL1        0.1552
     20 C         -11.1201   -8.8107   30.3761 C.ar    1  UNL1        0.0505
     21 C         -12.2342   -9.1479   31.1632 C.ar    1  UNL1        0.0147
     22 C         -12.9808   -8.1480   31.7900 C.ar    1  UNL1        0.0012
     23 C         -12.6115   -6.8075   31.6584 C.ar    1  UNL1        0.0039
     24 C         -11.4697   -6.4545   30.9191 C.ar    1  UNL1        0.0726
     25 C         -10.7382   -7.4647   30.2691 C.ar    1  UNL1        0.0185
     26 C         -11.0895   -5.0056   30.7446 C.3     1  UNL1        0.4186
     27 F         -11.5294   -4.5297   29.5215 F       1  UNL1       -0.1659
     28 F         -11.6686   -4.2587   31.7533 F       1  UNL1       -0.1659
     29 F          -9.7152   -4.8493   30.8000 F       1  UNL1       -0.1659
     30 N          -8.2851  -16.8550   26.2955 N.pl3   1  UNL1       -0.2815
     31 H          -7.7282  -17.6918   26.5748 H       1  UNL1        0.1551
     32 C         -10.3363  -17.8302   23.2948 C.ar    1  UNL1       -0.0103
     33 C         -10.0349  -16.7658   22.4305 C.ar    1  UNL1       -0.0010
     34 C          -9.1853  -15.7392   22.8388 C.ar    1  UNL1        0.0307
     35 C          -8.6111  -15.7655   24.1091 C.ar    1  UNL1        0.1543
     36 F          -7.8252  -14.7298   24.4981 F       1  UNL1       -0.2028
     37 C          -8.8719  -16.8353   24.9838 C.ar    1  UNL1        0.0886
     38 C          -9.7436  -17.8689   24.5790 C.ar    1  UNL1        0.0693
     39 CL        -10.0463  -19.2261   25.6693 Cl      1  UNL1       -0.0812
     40 C         -10.9007  -19.3166   21.3653 C.3     1  UNL1        0.0051
     41 C         -11.2422  -18.9342   22.8022 C.3     1  UNL1        0.0273
@<TRIPOS>BOND
     1    40    41    1
     2    41    32    1
     3    32    33   ar
     4    33    34   ar
     5    34    35   ar
     6    35    36    1
     7    35    37   ar
     8    37    30    1
     9    30     1    1
    10     1     2   ar
    11     2     3   ar
    12     3     4   ar
    13     4     5   ar
    14     5    16    1
    15    16    17    2
    16    16    18   am
    17    18    20    1
    18    20    21   ar
    19    21    22   ar
    20    22    23   ar
    21    23    24   ar
    22    24    26    1
    23    26    27    1
    24    26    28    1
    25    26    29    1
    26    24    25   ar
    27     5     6   ar
    28     6     7   ar
    29     7     8   ar
    30     8     9   ar
    31     9    10    1
    32     7    11    1
    33    11    12    1
    34    12    13    1
    35    12    14    1
    36    12    15    1
    37    37    38   ar
    38    38    39    1
    39    38    32   ar
    40     9     1   ar
    41     8     3   ar
    42    25    20   ar
    43    15     6    1
    44    30    31    1
    45    18    19    1
@<TRIPOS>MOLECULE
*****
 41 45 0 0 0
SMALL
GASTEIGER

@<TRIPOS>ATOM
      1 C          -7.2847  -10.0460   32.6720 C.ar    1  UNL1        0.2018
      2 N          -6.8660  -10.5014   31.4609 N.ar    1  UNL1       -0.2135
      3 C          -7.8325  -11.3681   31.1128 C.ar    1  UNL1        0.0999
      4 C          -7.9226  -12.1037   29.9239 C.ar    1  UNL1        0.0282
      5 C          -9.0565  -12.9328   29.7276 C.ar    1  UNL1        0.0888
      6 C         -10.0536  -12.9444   30.7336 C.ar    1  UNL1        0.1401
      7 C          -9.9323  -12.2200   31.8971 C.ar    1  UNL1        0.0327
      8 C          -8.7991  -11.4232   32.0812 C.ar    1  UNL1        0.0789
      9 N          -8.4597  -10.5956   33.0873 N.ar    1  UNL1       -0.2977
     10 C          -9.2162  -10.2952   34.3025 C.3     1  UNL1        0.1332
     11 C         -11.1408  -12.4097   32.7454 C.3     1  UNL1        0.0709
     12 C         -12.0319  -13.3480   31.8667 C.3     1  UNL1        0.1375
     13 C         -13.3422  -12.6572   31.4658 C.3     1  UNL1        0.0439
     14 C         -12.3233  -14.6753   32.5798 C.3     1  UNL1        0.0439
     15 O         -11.2622  -13.6079   30.6913 O.3     1  UNL1       -0.4824
     16 C          -9.1945  -13.7170   28.4819 C.2     1  UNL1        0.2525
     17 O         -10.2348  -13.5726   27.7839 O.2     1  UNL1       -0.2697
     18 N          -8.1640  -14.6326   28.0677 N.am    1  UNL1       -0.2803
     19 H          -7.3286  -14.7617   28.6802 H       1  UNL1        0.1552
     20 C          -8.2437  -15.4546   26.8914 C.ar    1  UNL1        0.0505
     21 C          -9.0349  -16.6155   26.8600 C.ar    1  UNL1        0.0147
     22 C          -9.1019  -17.3895   25.6997 C.ar    1  UNL1        0.0012
     23 C          -8.4018  -17.0026   24.5548 C.ar    1  UNL1        0.0039
     24 C          -7.6476  -15.8169   24.5501 C.ar    1  UNL1        0.0726
     25 C          -7.5637  -15.0566   25.7303 C.ar    1  UNL1        0.0185
     26 C          -6.8610  -15.4157   23.3275 C.3     1  UNL1        0.4186
     27 F          -6.4786  -16.5329   22.6052 F       1  UNL1       -0.1659
     28 F          -7.6464  -14.6083   22.5261 F       1  UNL1       -0.1659
     29 F          -5.7186  -14.7209   23.6857 F       1  UNL1       -0.1659
     30 N          -6.5848   -9.0206   33.3941 N.pl3   1  UNL1       -0.2815
     31 H          -6.6947   -8.9698   34.4303 H       1  UNL1        0.1551
     32 C          -5.8339   -6.1613   31.0655 C.ar    1  UNL1       -0.0103
     33 C          -4.5253   -5.8498   31.4673 C.ar    1  UNL1       -0.0010
     34 C          -3.9120   -6.5595   32.4981 C.ar    1  UNL1        0.0307
     35 C          -4.5877   -7.6003   33.1340 C.ar    1  UNL1        0.1543
     36 F          -3.9850   -8.2435   34.1657 F       1  UNL1       -0.2028
     37 C          -5.8880   -7.9530   32.7309 C.ar    1  UNL1        0.0886
     38 C          -6.5176   -7.2266   31.6975 C.ar    1  UNL1        0.0693
     39 CL         -8.1402   -7.6911   31.1738 Cl      1  UNL1       -0.0812
     40 C          -7.6902   -4.6262   30.3955 C.3     1  UNL1        0.0051
     41 C          -6.4509   -5.3828   29.9273 C.3     1  UNL1        0.0273
@<TRIPOS>BOND
     1    40    41    1
     2    41    32    1
     3    32    33   ar
     4    33    34   ar
     5    34    35   ar
     6    35    36    1
     7    35    37   ar
     8    37    30    1
     9    30     1    1
    10     1     2   ar
    11     2     3   ar
    12     3     4   ar
    13     4     5   ar
    14     5    16    1
    15    16    17    2
    16    16    18   am
    17    18    20    1
    18    20    21   ar
    19    21    22   ar
    20    22    23   ar
    21    23    24   ar
    22    24    26    1
    23    26    27    1
    24    26    28    1
    25    26    29    1
    26    24    25   ar
    27     5     6   ar
    28     6     7   ar
    29     7     8   ar
    30     8     9   ar
    31     9    10    1
    32     7    11    1
    33    11    12    1
    34    12    13    1
    35    12    14    1
    36    12    15    1
    37    37    38   ar
    38    38    39    1
    39    38    32   ar
    40     9     1   ar
    41     8     3   ar
    42    25    20   ar
    43    15     6    1
    44    30    31    1
    45    18    19    1
@<TRIPOS>MOLECULE
*****
 41 45 0 0 0
SMALL
GASTEIGER

@<TRIPOS>ATOM
      1 C         -10.8474   -8.7731   31.2170 C.ar    1  UNL1        0.2018
      2 N         -10.0980   -9.3028   30.2134 N.ar    1  UNL1       -0.2135
      3 C         -10.2551  -10.6267   30.3847 C.ar    1  UNL1        0.0999
      4 C          -9.7230  -11.6524   29.5925 C.ar    1  UNL1        0.0282
      5 C         -10.0501  -12.9939   29.9164 C.ar    1  UNL1        0.0888
      6 C         -10.9264  -13.2199   31.0062 C.ar    1  UNL1        0.1401
      7 C         -11.4245  -12.1926   31.7741 C.ar    1  UNL1        0.0327
      8 C         -11.0762  -10.8783   31.4513 C.ar    1  UNL1        0.0789
      9 N         -11.4532   -9.7083   32.0003 N.ar    1  UNL1       -0.2977
     10 C         -12.3652   -9.4909   33.1228 C.3     1  UNL1        0.1332
     11 C         -12.3328  -12.7326   32.8227 C.3     1  UNL1        0.0709
     12 C         -12.3250  -14.2680   32.5246 C.3     1  UNL1        0.1375
     13 C         -13.7200  -14.7645   32.1214 C.3     1  UNL1        0.0439
     14 C         -11.7972  -15.0699   33.7219 C.3     1  UNL1        0.0439
     15 O         -11.4330  -14.4341   31.4209 O.3     1  UNL1       -0.4824
     16 C          -9.5178  -14.1047   29.0988 C.2     1  UNL1        0.2525
     17 O          -9.8240  -15.2885   29.4070 O.2     1  UNL1       -0.2697
     18 N          -8.6628  -13.8468   27.9699 N.am    1  UNL1       -0.2803
     19 H          -8.3943  -12.8610   27.7559 H       1  UNL1        0.1552
     20 C          -8.0784  -14.8742   27.1522 C.ar    1  UNL1        0.0505
     21 C          -6.7165  -15.2054   27.2523 C.ar    1  UNL1        0.0147
     22 C          -6.1780  -16.2156   26.4527 C.ar    1  UNL1        0.0012
     23 C          -6.9940  -16.9200   25.5647 C.ar    1  UNL1        0.0039
     24 C          -8.3689  -16.6394   25.4884 C.ar    1  UNL1        0.0726
     25 C          -8.8989  -15.6030   26.2777 C.ar    1  UNL1        0.0185
     26 C          -9.2455  -17.3727   24.5045 C.3     1  UNL1        0.4186
     27 F          -8.4899  -17.8797   23.4614 F       1  UNL1       -0.1659
     28 F          -9.8795  -18.4174   25.1507 F       1  UNL1       -0.1659
     29 F         -10.2017  -16.5246   23.9729 F       1  UNL1       -0.1659
     30 N         -11.0387   -7.3582   31.3719 N.pl3   1  UNL1       -0.2815
     31 H         -11.9677   -7.0075   31.6919 H       1  UNL1        0.1551
     32 C          -7.7495   -5.6138   30.8234 C.ar    1  UNL1       -0.0103
     33 C          -8.1698   -4.5323   30.0331 C.ar    1  UNL1       -0.0010
     34 C          -9.5097   -4.3937   29.6753 C.ar    1  UNL1        0.0307
     35 C         -10.4536   -5.3223   30.1123 C.ar    1  UNL1        0.1543
     36 F         -11.7429   -5.1896   29.7105 F       1  UNL1       -0.2028
     37 C         -10.0647   -6.3982   30.9302 C.ar    1  UNL1        0.0886
     38 C          -8.7063   -6.5498   31.2820 C.ar    1  UNL1        0.0693
     39 CL         -8.2257   -7.8862   32.3335 Cl      1  UNL1       -0.0812
     40 C          -5.6132   -6.8656   30.4771 C.3     1  UNL1        0.0051
     41 C          -6.2919   -5.7113   31.2081 C.3     1  UNL1        0.0273
@<TRIPOS>BOND
     1    40    41    1
     2    41    32    1
     3    32    33   ar
     4    33    34   ar
     5    34    35   ar
     6    35    36    1
     7    35    37   ar
     8    37    30    1
     9    30     1    1
    10     1     2   ar
    11     2     3   ar
    12     3     4   ar
    13     4     5   ar
    14     5    16    1
    15    16    17    2
    16    16    18   am
    17    18    20    1
    18    20    21   ar
    19    21    22   ar
    20    22    23   ar
    21    23    24   ar
    22    24    26    1
    23    26    27    1
    24    26    28    1
    25    26    29    1
    26    24    25   ar
    27     5     6   ar
    28     6     7   ar
    29     7     8   ar
    30     8     9   ar
    31     9    10    1
    32     7    11    1
    33    11    12    1
    34    12    13    1
    35    12    14    1
    36    12    15    1
    37    37    38   ar
    38    38    39    1
    39    38    32   ar
    40     9     1   ar
    41     8     3   ar
    42    25    20   ar
    43    15     6    1
    44    30    31    1
    45    18    19    1
@<TRIPOS>MOLECULE
*****
 41 45 0 0 0
SMALL
GASTEIGER

@<TRIPOS>ATOM
      1 C          -9.4881  -11.1612   31.2841 C.ar    1  UNL1        0.2018
      2 N          -9.5769  -12.3906   30.7095 N.ar    1  UNL1       -0.2135
      3 C          -8.5355  -12.4036   29.8598 C.ar    1  UNL1        0.0999
      4 C          -8.1319  -13.4582   29.0306 C.ar    1  UNL1        0.0282
      5 C          -6.9678  -13.2866   28.2387 C.ar    1  UNL1        0.0888
      6 C          -6.2577  -12.0665   28.3566 C.ar    1  UNL1        0.1401
      7 C          -6.6849  -11.0432   29.1711 C.ar    1  UNL1        0.0327
      8 C          -7.8445  -11.2235   29.9298 C.ar    1  UNL1        0.0789
      9 N          -8.4450  -10.4159   30.8241 N.ar    1  UNL1       -0.2977
     10 C          -8.0272   -9.0837   31.2596 C.3     1  UNL1        0.1332
     11 C          -5.7266   -9.9057   29.1076 C.3     1  UNL1        0.0709
     12 C          -4.6224  -10.4422   28.1383 C.3     1  UNL1        0.1375
     13 C          -3.2683  -10.5653   28.8498 C.3     1  UNL1        0.0439
     14 C          -4.4927   -9.5583   26.8905 C.3     1  UNL1        0.0439
     15 O          -5.0639  -11.7432   27.7458 O.3     1  UNL1       -0.4824
     16 C          -6.5024  -14.3793   27.3585 C.2     1  UNL1        0.2525
     17 O          -6.7183  -15.5728   27.7037 O.2     1  UNL1       -0.2697
     18 N          -5.8125  -14.0933   26.1280 N.am    1  UNL1       -0.2803
     19 H          -5.6138  -13.0987   25.8811 H       1  UNL1        0.1552
     20 C          -5.2988  -15.1007   25.2409 C.ar    1  UNL1        0.0505
     21 C          -4.6317  -16.2370   25.7292 C.ar    1  UNL1        0.0147
     22 C          -4.1524  -17.2052   24.8445 C.ar    1  UNL1        0.0012
     23 C          -4.3533  -17.0629   23.4697 C.ar    1  UNL1        0.0039
     24 C          -5.0643  -15.9604   22.9661 C.ar    1  UNL1        0.0726
     25 C          -5.5210  -14.9762   23.8610 C.ar    1  UNL1        0.0185
     26 C          -5.2510  -15.7849   21.4799 C.3     1  UNL1        0.4186
     27 F          -5.8915  -14.5886   21.2066 F       1  UNL1       -0.1659
     28 F          -4.0140  -15.7848   20.8630 F       1  UNL1       -0.1659
     29 F          -6.0155  -16.8136   20.9571 F       1  UNL1       -0.1659
     30 N         -10.3695  -10.7360   32.3351 N.pl3   1  UNL1       -0.2815
     31 H         -10.0661   -9.9612   32.9644 H       1  UNL1        0.1551
     32 C         -12.7096  -13.2252   33.9132 C.ar    1  UNL1       -0.0103
     33 C         -13.9253  -12.8244   33.3368 C.ar    1  UNL1       -0.0010
     34 C         -13.9716  -11.7430   32.4588 C.ar    1  UNL1        0.0307
     35 C         -12.8048  -11.0541   32.1301 C.ar    1  UNL1        0.1543
     36 F         -12.8855   -9.9760   31.3098 F       1  UNL1       -0.2028
     37 C         -11.5690  -11.4535   32.6695 C.ar    1  UNL1        0.0886
     38 C         -11.5208  -12.5388   33.5705 C.ar    1  UNL1        0.0693
     39 CL         -9.9626  -13.0564   34.2237 Cl      1  UNL1       -0.0812
     40 C         -13.0476  -15.6966   34.0832 C.3     1  UNL1        0.0051
     41 C         -12.7016  -14.4181   34.8401 C.3     1  UNL1        0.0273
@<TRIPOS>BOND
     1    40    41    1
     2    41    32    1
     3    32    33   ar
     4    33    34   ar
     5    34    35   ar
     6    35    36    1
     7    35    37   ar
     8    37    30    1
     9    30     1    1
    10     1     2   ar
    11     2     3   ar
    12     3     4   ar
    13     4     5   ar
    14     5    16    1
    15    16    17    2
    16    16    18   am
    17    18    20    1
    18    20    21   ar
    19    21    22   ar
    20    22    23   ar
    21    23    24   ar
    22    24    26    1
    23    26    27    1
    24    26    28    1
    25    26    29    1
    26    24    25   ar
    27     5     6   ar
    28     6     7   ar
    29     7     8   ar
    30     8     9   ar
    31     9    10    1
    32     7    11    1
    33    11    12    1
    34    12    13    1
    35    12    14    1
    36    12    15    1
    37    37    38   ar
    38    38    39    1
    39    38    32   ar
    40     9     1   ar
    41     8     3   ar
    42    25    20   ar
    43    15     6    1
    44    30    31    1
    45    18    19    1
