@<TRIPOS>MOLECULE
*****
 37 42 0 0 0
SMALL
GASTEIGER

@<TRIPOS>ATOM
      1 C          45.9474   12.9137  -31.3271 C.ar    1  UNL1        0.1720
      2 N          45.7949   13.8645  -30.3507 N.ar    1  UNL1       -0.2133
      3 C          46.0378   13.5918  -29.0338 C.ar    1  UNL1        0.1376
      4 C          46.4246   12.2891  -28.7065 C.ar    1  UNL1        0.0865
      5 C          46.7017   11.5902  -27.5360 C.ar    1  UNL1        0.1095
      6 N          47.0472   10.3190  -27.8608 N.ar    1  UNL1       -0.1677
      7 N          46.9995   10.2015  -29.1823 N.ar    1  UNL1       -0.2319
      8 C          47.2279    8.9573  -29.9044 C.3     1  UNL1        0.1554
      9 C          46.6028   11.3744  -29.6983 C.ar    1  UNL1        0.1650
     10 N          46.3615   11.6526  -31.0016 N.ar    1  UNL1       -0.2095
     11 C          46.5219   12.0424  -26.1481 C.ar    1  UNL1        0.0577
     12 C          45.3334   12.3857  -25.5304 C.ar    1  UNL1        0.1231
     13 N          45.5892   12.8199  -24.2800 N.ar    1  UNL1       -0.1676
     14 N          46.8977   12.7533  -24.0868 N.ar    1  UNL1       -0.2488
     15 C          47.5501   13.1789  -22.8534 C.3     1  UNL1        0.1537
     16 C          47.4991   12.2821  -25.1997 C.ar    1  UNL1        0.0809
     17 C          48.9560   12.1635  -25.3913 C.ar    1  UNL1        0.0174
     18 C          49.7434   13.3145  -25.5350 C.ar    1  UNL1        0.0012
     19 C          51.1239   13.2043  -25.7237 C.ar    1  UNL1       -0.0042
     20 C          51.7313   11.9405  -25.7807 C.ar    1  UNL1       -0.0218
     21 C          53.2174   11.8231  -25.9449 C.3     1  UNL1        0.0310
     22 C          50.9453   10.7901  -25.6134 C.ar    1  UNL1       -0.0042
     23 C          49.5647   10.9012  -25.4246 C.ar    1  UNL1        0.0012
     24 N          45.9734   14.6429  -28.0632 N.pl3   1  UNL1       -0.2917
     25 C          44.8122   15.5101  -27.9241 C.3     1  UNL1        0.0937
     26 C          45.3002   16.7264  -27.1387 C.3     1  UNL1        0.0391
     27 C          46.6070   16.2744  -26.4940 C.3     1  UNL1        0.0790
     28 C          47.1623   15.2373  -27.4762 C.3     1  UNL1        0.1081
     29 N          47.4665   17.4419  -26.1413 N.3     1  UNL1       -0.2723
     30 C          48.6491   17.7425  -26.9803 C.3     1  UNL1        0.0721
     31 C          49.8874   16.9038  -26.5962 C.3     1  UNL1        0.0174
     32 C          50.1653   16.9668  -25.0926 C.3     1  UNL1        0.0029
     33 C          48.9080   16.6216  -24.2945 C.3     1  UNL1        0.0174
     34 C          47.7622   17.5520  -24.6983 C.3     1  UNL1        0.0721
     35 C          45.6378   13.2513  -32.7525 C.3     1  UNL1        0.2074
     36 C          44.2624   12.4423  -34.4332 C.3     1  UNL1        0.1747
     37 O          44.3245   12.8432  -33.0814 O.3     1  UNL1       -0.3430
@<TRIPOS>BOND
     1    36    37    1
     2    37    35    1
     3    35     1    1
     4     1     2   ar
     5     2     3   ar
     6     3    24    1
     7    24    25    1
     8    25    26    1
     9    26    27    1
    10    27    29    1
    11    29    30    1
    12    30    31    1
    13    31    32    1
    14    32    33    1
    15    33    34    1
    16    27    28    1
    17     3     4   ar
    18     4     5   ar
    19     5    11    1
    20    11    12   ar
    21    12    13   ar
    22    13    14   ar
    23    14    15    1
    24    14    16   ar
    25    16    17    1
    26    17    18   ar
    27    18    19   ar
    28    19    20   ar
    29    20    21    1
    30    20    22   ar
    31    22    23   ar
    32     5     6   ar
    33     6     7   ar
    34     7     8    1
    35     7     9   ar
    36     9    10   ar
    37    10     1   ar
    38    28    24    1
    39     9     4   ar
    40    34    29    1
    41    16    11   ar
    42    23    17   ar
@<TRIPOS>MOLECULE
*****
 37 42 0 0 0
SMALL
GASTEIGER

@<TRIPOS>ATOM
      1 C          51.1923   12.9385  -20.1810 C.ar    1  UNL1        0.1720
      2 N          50.7298   13.9555  -20.9761 N.ar    1  UNL1       -0.2133
      3 C          49.6770   13.7819  -21.8300 C.ar    1  UNL1        0.1376
      4 C          49.0974   12.5114  -21.8880 C.ar    1  UNL1        0.0865
      5 C          48.0893   11.9026  -22.6286 C.ar    1  UNL1        0.1095
      6 N          47.9652   10.6156  -22.2173 N.ar    1  UNL1       -0.1677
      7 N          48.8505   10.4021  -21.2514 N.ar    1  UNL1       -0.2319
      8 C          49.0742    9.1118  -20.6135 C.3     1  UNL1        0.1554
      9 C          49.5525   11.5295  -21.0627 C.ar    1  UNL1        0.1650
     10 N          50.5956   11.7096  -20.2179 N.ar    1  UNL1       -0.2095
     11 C          47.3528   12.4518  -23.7771 C.ar    1  UNL1        0.0577
     12 C          46.0696   12.9666  -23.7758 C.ar    1  UNL1        0.1231
     13 N          45.7211   13.3007  -25.0345 N.ar    1  UNL1       -0.1676
     14 N          46.7451   13.0216  -25.8268 N.ar    1  UNL1       -0.2488
     15 C          46.7189   13.2180  -27.2721 C.3     1  UNL1        0.1537
     16 C          47.7578   12.5064  -25.0980 C.ar    1  UNL1        0.0809
     17 C          49.0225   11.9881  -25.6505 C.ar    1  UNL1        0.0174
     18 C          49.0475   10.7534  -26.3142 C.ar    1  UNL1        0.0012
     19 C          50.2466   10.2567  -26.8327 C.ar    1  UNL1       -0.0042
     20 C          51.4368   10.9852  -26.6844 C.ar    1  UNL1       -0.0218
     21 C          52.7162   10.4706  -27.2739 C.3     1  UNL1        0.0310
     22 C          51.4061   12.2317  -26.0403 C.ar    1  UNL1       -0.0042
     23 C          50.2063   12.7277  -25.5222 C.ar    1  UNL1        0.0012
     24 N          49.1568   14.8997  -22.5588 N.pl3   1  UNL1       -0.2917
     25 C          47.8945   15.5390  -22.2159 C.3     1  UNL1        0.0937
     26 C          47.4945   16.3458  -23.4502 C.3     1  UNL1        0.0391
     27 C          48.7778   16.4706  -24.2659 C.3     1  UNL1        0.0790
     28 C          49.5564   15.1956  -23.9241 C.3     1  UNL1        0.1081
     29 N          48.4799   16.7511  -25.7006 N.3     1  UNL1       -0.2723
     30 C          49.5661   16.6206  -26.6986 C.3     1  UNL1        0.0721
     31 C          50.4529   17.8814  -26.7900 C.3     1  UNL1        0.0174
     32 C          49.6123   19.1496  -26.9550 C.3     1  UNL1        0.0029
     33 C          48.5307   19.2265  -25.8774 C.3     1  UNL1        0.0174
     34 C          47.6658   17.9647  -25.9158 C.3     1  UNL1        0.0721
     35 C          52.3697   13.1680  -19.2850 C.3     1  UNL1        0.2074
     36 C          51.7986   12.6596  -17.0972 C.3     1  UNL1        0.1747
     37 O          52.4178   12.1822  -18.2723 O.3     1  UNL1       -0.3430
@<TRIPOS>BOND
     1    36    37    1
     2    37    35    1
     3    35     1    1
     4     1     2   ar
     5     2     3   ar
     6     3    24    1
     7    24    25    1
     8    25    26    1
     9    26    27    1
    10    27    29    1
    11    29    30    1
    12    30    31    1
    13    31    32    1
    14    32    33    1
    15    33    34    1
    16    27    28    1
    17     3     4   ar
    18     4     5   ar
    19     5    11    1
    20    11    12   ar
    21    12    13   ar
    22    13    14   ar
    23    14    15    1
    24    14    16   ar
    25    16    17    1
    26    17    18   ar
    27    18    19   ar
    28    19    20   ar
    29    20    21    1
    30    20    22   ar
    31    22    23   ar
    32     5     6   ar
    33     6     7   ar
    34     7     8    1
    35     7     9   ar
    36     9    10   ar
    37    10     1   ar
    38    28    24    1
    39     9     4   ar
    40    34    29    1
    41    16    11   ar
    42    23    17   ar
@<TRIPOS>MOLECULE
*****
 37 42 0 0 0
SMALL
GASTEIGER

@<TRIPOS>ATOM
      1 C          50.5152   14.0315  -20.6845 C.ar    1  UNL1        0.1720
      2 N          50.3819   14.3612  -22.0089 N.ar    1  UNL1       -0.2133
      3 C          49.2527   14.0601  -22.7174 C.ar    1  UNL1        0.1376
      4 C          48.2367   13.3721  -22.0480 C.ar    1  UNL1        0.0865
      5 C          46.9982   12.8362  -22.3860 C.ar    1  UNL1        0.1095
      6 N          46.4476   12.2821  -21.2767 N.ar    1  UNL1       -0.1677
      7 N          47.2900   12.4548  -20.2654 N.ar    1  UNL1       -0.2319
      8 C          47.0835   11.9232  -18.9251 C.3     1  UNL1        0.1554
      9 C          48.3797   13.0883  -20.7246 C.ar    1  UNL1        0.1650
     10 N          49.5013   13.3914  -20.0288 N.ar    1  UNL1       -0.2095
     11 C          46.3982   12.7180  -23.7236 C.ar    1  UNL1        0.0577
     12 C          45.1458   13.1521  -24.1170 C.ar    1  UNL1        0.1231
     13 N          44.9319   12.7954  -25.3993 N.ar    1  UNL1       -0.1676
     14 N          46.0109   12.1589  -25.8291 N.ar    1  UNL1       -0.2488
     15 C          46.1285   11.5911  -27.1676 C.3     1  UNL1        0.1537
     16 C          46.9264   12.0946  -24.8390 C.ar    1  UNL1        0.0809
     17 C          48.2114   11.3763  -24.9172 C.ar    1  UNL1        0.0174
     18 C          48.6227   10.5517  -23.8605 C.ar    1  UNL1        0.0012
     19 C          49.8438    9.8753  -23.9293 C.ar    1  UNL1       -0.0042
     20 C          50.6723   10.0238  -25.0521 C.ar    1  UNL1       -0.0218
     21 C          51.9646    9.2682  -25.1428 C.3     1  UNL1        0.0310
     22 C          50.2488   10.8310  -26.1191 C.ar    1  UNL1       -0.0042
     23 C          49.0272   11.5071  -26.0495 C.ar    1  UNL1        0.0012
     24 N          49.1116   14.5210  -24.0660 N.pl3   1  UNL1       -0.2917
     25 C          50.2166   14.5179  -25.0141 C.3     1  UNL1        0.0937
     26 C          49.7972   15.4665  -26.1359 C.3     1  UNL1        0.0391
     27 C          48.2869   15.6132  -25.9771 C.3     1  UNL1        0.0790
     28 C          48.0560   15.4328  -24.4729 C.3     1  UNL1        0.1081
     29 N          47.7962   16.8669  -26.6200 N.3     1  UNL1       -0.2723
     30 C          48.7819   17.8731  -27.0770 C.3     1  UNL1        0.0721
     31 C          49.2503   18.8128  -25.9448 C.3     1  UNL1        0.0174
     32 C          48.0650   19.4113  -25.1838 C.3     1  UNL1        0.0029
     33 C          47.1063   18.3130  -24.7241 C.3     1  UNL1        0.0174
     34 C          46.6477   17.4844  -25.9261 C.3     1  UNL1        0.0721
     35 C          51.7847   14.3538  -19.9592 C.3     1  UNL1        0.2074
     36 C          52.4049   12.5512  -18.6411 C.3     1  UNL1        0.1747
     37 O          52.6081   13.2073  -19.8741 O.3     1  UNL1       -0.3430
@<TRIPOS>BOND
     1    36    37    1
     2    37    35    1
     3    35     1    1
     4     1     2   ar
     5     2     3   ar
     6     3    24    1
     7    24    25    1
     8    25    26    1
     9    26    27    1
    10    27    29    1
    11    29    30    1
    12    30    31    1
    13    31    32    1
    14    32    33    1
    15    33    34    1
    16    27    28    1
    17     3     4   ar
    18     4     5   ar
    19     5    11    1
    20    11    12   ar
    21    12    13   ar
    22    13    14   ar
    23    14    15    1
    24    14    16   ar
    25    16    17    1
    26    17    18   ar
    27    18    19   ar
    28    19    20   ar
    29    20    21    1
    30    20    22   ar
    31    22    23   ar
    32     5     6   ar
    33     6     7   ar
    34     7     8    1
    35     7     9   ar
    36     9    10   ar
    37    10     1   ar
    38    28    24    1
    39     9     4   ar
    40    34    29    1
    41    16    11   ar
    42    23    17   ar
@<TRIPOS>MOLECULE
*****
 37 42 0 0 0
SMALL
GASTEIGER

@<TRIPOS>ATOM
      1 C          47.7014   16.9591  -25.0692 C.ar    1  UNL1        0.1720
      2 N          48.2964   16.3537  -23.9921 N.ar    1  UNL1       -0.2133
      3 C          48.4254   14.9958  -23.9080 C.ar    1  UNL1        0.1376
      4 C          47.9004   14.2328  -24.9548 C.ar    1  UNL1        0.0865
      5 C          47.7643   12.8774  -25.2367 C.ar    1  UNL1        0.1095
      6 N          47.1674   12.7435  -26.4478 N.ar    1  UNL1       -0.1677
      7 N          46.9312   13.9577  -26.9297 N.ar    1  UNL1       -0.2319
      8 C          46.2265   14.2231  -28.1765 C.3     1  UNL1        0.1554
      9 C          47.3468   14.8600  -26.0283 C.ar    1  UNL1        0.1650
     10 N          47.2238   16.2066  -26.1051 N.ar    1  UNL1       -0.2095
     11 C          48.0529   11.7364  -24.3546 C.ar    1  UNL1        0.0577
     12 C          47.4069   11.4088  -23.1768 C.ar    1  UNL1        0.1231
     13 N          48.0085   10.3384  -22.6203 N.ar    1  UNL1       -0.1676
     14 N          49.0059    9.9757  -23.4127 N.ar    1  UNL1       -0.2488
     15 C          49.9089    8.8701  -23.1122 C.3     1  UNL1        0.1537
     16 C          49.0629   10.8005  -24.4798 C.ar    1  UNL1        0.0809
     17 C          50.1024   10.7653  -25.5247 C.ar    1  UNL1        0.0174
     18 C          49.9933    9.8682  -26.5966 C.ar    1  UNL1        0.0012
     19 C          50.9810    9.8282  -27.5847 C.ar    1  UNL1       -0.0042
     20 C          52.0945   10.6787  -27.5064 C.ar    1  UNL1       -0.0218
     21 C          53.1349   10.6626  -28.5865 C.3     1  UNL1        0.0310
     22 C          52.1906   11.5922  -26.4455 C.ar    1  UNL1       -0.0042
     23 C          51.2022   11.6316  -25.4578 C.ar    1  UNL1        0.0012
     24 N          49.1515   14.4135  -22.8195 N.pl3   1  UNL1       -0.2917
     25 C          50.5520   14.0304  -22.9284 C.3     1  UNL1        0.0937
     26 C          50.8076   13.0745  -21.7644 C.3     1  UNL1        0.0391
     27 C          49.6489   13.3155  -20.8014 C.3     1  UNL1        0.0790
     28 C          48.4929   13.7368  -21.7151 C.3     1  UNL1        0.1081
     29 N          49.4440   12.1442  -19.9003 N.3     1  UNL1       -0.2723
     30 C          48.2675   12.1270  -19.0012 C.3     1  UNL1        0.0721
     31 C          48.5022   12.9069  -17.6894 C.3     1  UNL1        0.0174
     32 C          49.8056   12.4832  -17.0084 C.3     1  UNL1        0.0029
     33 C          50.9758   12.5498  -17.9897 C.3     1  UNL1        0.0174
     34 C          50.6743   11.6911  -19.2199 C.3     1  UNL1        0.0721
     35 C          47.5542   18.4487  -25.1008 C.3     1  UNL1        0.2074
     36 C          49.0437   19.0039  -26.7873 C.3     1  UNL1        0.1747
     37 O          48.7938   19.0601  -25.3994 O.3     1  UNL1       -0.3430
@<TRIPOS>BOND
     1    36    37    1
     2    37    35    1
     3    35     1    1
     4     1     2   ar
     5     2     3   ar
     6     3    24    1
     7    24    25    1
     8    25    26    1
     9    26    27    1
    10    27    29    1
    11    29    30    1
    12    30    31    1
    13    31    32    1
    14    32    33    1
    15    33    34    1
    16    27    28    1
    17     3     4   ar
    18     4     5   ar
    19     5    11    1
    20    11    12   ar
    21    12    13   ar
    22    13    14   ar
    23    14    15    1
    24    14    16   ar
    25    16    17    1
    26    17    18   ar
    27    18    19   ar
    28    19    20   ar
    29    20    21    1
    30    20    22   ar
    31    22    23   ar
    32     5     6   ar
    33     6     7   ar
    34     7     8    1
    35     7     9   ar
    36     9    10   ar
    37    10     1   ar
    38    28    24    1
    39     9     4   ar
    40    34    29    1
    41    16    11   ar
    42    23    17   ar
@<TRIPOS>MOLECULE
*****
 37 42 0 0 0
SMALL
GASTEIGER

@<TRIPOS>ATOM
      1 C          50.2605   17.5489  -25.1267 C.ar    1  UNL1        0.1720
      2 N          50.7956   16.3279  -24.8054 N.ar    1  UNL1       -0.2133
      3 C          50.0555   15.3531  -24.1974 C.ar    1  UNL1        0.1376
      4 C          48.7269   15.6541  -23.8844 C.ar    1  UNL1        0.0865
      5 C          47.6783   15.0075  -23.2381 C.ar    1  UNL1        0.1095
      6 N          46.5921   15.8204  -23.2526 N.ar    1  UNL1       -0.1677
      7 N          46.9216   16.9411  -23.8833 N.ar    1  UNL1       -0.2319
      8 C          46.0394   18.0909  -24.0288 C.3     1  UNL1        0.1554
      9 C          48.2106   16.8603  -24.2460 C.ar    1  UNL1        0.1650
     10 N          48.9501   17.8209  -24.8498 N.ar    1  UNL1       -0.2095
     11 C          47.7151   13.7313  -22.5079 C.ar    1  UNL1        0.0577
     12 C          48.0422   13.5408  -21.1781 C.ar    1  UNL1        0.1231
     13 N          48.0337   12.2215  -20.9007 N.ar    1  UNL1       -0.1676
     14 N          47.7037   11.5758  -22.0090 N.ar    1  UNL1       -0.2488
     15 C          47.6287   10.1217  -22.0991 C.3     1  UNL1        0.1537
     16 C          47.4990   12.4605  -23.0079 C.ar    1  UNL1        0.0809
     17 C          47.2119   12.1058  -24.4097 C.ar    1  UNL1        0.0174
     18 C          48.2546   11.7322  -25.2692 C.ar    1  UNL1        0.0012
     19 C          47.9858   11.4022  -26.6005 C.ar    1  UNL1       -0.0042
     20 C          46.6716   11.4519  -27.0900 C.ar    1  UNL1       -0.0218
     21 C          46.3781   11.0611  -28.5079 C.3     1  UNL1        0.0310
     22 C          45.6260   11.8034  -26.2225 C.ar    1  UNL1       -0.0042
     23 C          45.8958   12.1331  -24.8911 C.ar    1  UNL1        0.0012
     24 N          50.6228   14.0560  -23.9812 N.pl3   1  UNL1       -0.2917
     25 C          51.2548   13.6773  -22.7254 C.3     1  UNL1        0.0937
     26 C          52.0962   12.4429  -23.0454 C.3     1  UNL1        0.0391
     27 C          51.5443   11.9291  -24.3718 C.3     1  UNL1        0.0790
     28 C          51.0386   13.1938  -25.0743 C.3     1  UNL1        0.1081
     29 N          52.5468   11.0820  -25.0812 N.3     1  UNL1       -0.2723
     30 C          53.1252   11.5682  -26.3548 C.3     1  UNL1        0.0721
     31 C          52.2282   11.2686  -27.5754 C.3     1  UNL1        0.0174
     32 C          51.8012    9.7995  -27.6126 C.3     1  UNL1        0.0029
     33 C          51.1928    9.3782  -26.2750 C.3     1  UNL1        0.0174
     34 C          52.1844    9.6513  -25.1420 C.3     1  UNL1        0.0721
     35 C          51.1202   18.5966  -25.7629 C.3     1  UNL1        0.2074
     36 C          49.5049   19.1513  -27.3295 C.3     1  UNL1        0.1747
     37 O          50.8295   18.7012  -27.1429 O.3     1  UNL1       -0.3430
@<TRIPOS>BOND
     1    36    37    1
     2    37    35    1
     3    35     1    1
     4     1     2   ar
     5     2     3   ar
     6     3    24    1
     7    24    25    1
     8    25    26    1
     9    26    27    1
    10    27    29    1
    11    29    30    1
    12    30    31    1
    13    31    32    1
    14    32    33    1
    15    33    34    1
    16    27    28    1
    17     3     4   ar
    18     4     5   ar
    19     5    11    1
    20    11    12   ar
    21    12    13   ar
    22    13    14   ar
    23    14    15    1
    24    14    16   ar
    25    16    17    1
    26    17    18   ar
    27    18    19   ar
    28    19    20   ar
    29    20    21    1
    30    20    22   ar
    31    22    23   ar
    32     5     6   ar
    33     6     7   ar
    34     7     8    1
    35     7     9   ar
    36     9    10   ar
    37    10     1   ar
    38    28    24    1
    39     9     4   ar
    40    34    29    1
    41    16    11   ar
    42    23    17   ar
@<TRIPOS>MOLECULE
*****
 37 42 0 0 0
SMALL
GASTEIGER

@<TRIPOS>ATOM
      1 C          49.2401   13.3780  -19.2661 C.ar    1  UNL1        0.1720
      2 N          48.4873   13.9177  -20.2773 N.ar    1  UNL1       -0.2133
      3 C          49.0503   14.3441  -21.4473 C.ar    1  UNL1        0.1376
      4 C          50.4384   14.2370  -21.5708 C.ar    1  UNL1        0.0865
      5 C          51.3901   14.5894  -22.5223 C.ar    1  UNL1        0.1095
      6 N          52.6130   14.2079  -22.0753 N.ar    1  UNL1       -0.1677
      7 N          52.4594   13.6310  -20.8897 N.ar    1  UNL1       -0.2319
      8 C          53.5582   13.1626  -20.0562 C.3     1  UNL1        0.1554
      9 C          51.1578   13.6653  -20.5668 C.ar    1  UNL1        0.1650
     10 N          50.5924   13.2435  -19.4107 N.ar    1  UNL1       -0.2095
     11 C          51.1946   15.3778  -23.7485 C.ar    1  UNL1        0.0577
     12 C          51.1258   16.7549  -23.8522 C.ar    1  UNL1        0.1231
     13 N          50.8644   17.0939  -25.1306 N.ar    1  UNL1       -0.1676
     14 N          50.7750   15.9769  -25.8366 N.ar    1  UNL1       -0.2488
     15 C          50.4631   15.9504  -27.2615 C.3     1  UNL1        0.1537
     16 C          50.9731   14.9118  -25.0313 C.ar    1  UNL1        0.0809
     17 C          50.8523   13.5018  -25.4443 C.ar    1  UNL1        0.0174
     18 C          49.5909   12.8940  -25.5139 C.ar    1  UNL1        0.0012
     19 C          49.4745   11.5553  -25.8985 C.ar    1  UNL1       -0.0042
     20 C          50.6200   10.8063  -26.2084 C.ar    1  UNL1       -0.0218
     21 C          50.4922    9.3812  -26.6578 C.3     1  UNL1        0.0310
     22 C          51.8799   11.4225  -26.1609 C.ar    1  UNL1       -0.0042
     23 C          51.9954   12.7615  -25.7763 C.ar    1  UNL1        0.0012
     24 N          48.2146   14.7977  -22.5183 N.pl3   1  UNL1       -0.2917
     25 C          47.6358   16.1333  -22.5480 C.3     1  UNL1        0.0937
     26 C          46.4979   16.0649  -23.5652 C.3     1  UNL1        0.0391
     27 C          46.7802   14.8065  -24.3805 C.3     1  UNL1        0.0790
     28 C          47.5014   13.8826  -23.3931 C.3     1  UNL1        0.1081
     29 N          45.5409   14.3023  -25.0407 N.3     1  UNL1       -0.2723
     30 C          45.0455   12.9490  -24.7003 C.3     1  UNL1        0.0721
     31 C          45.7490   11.8323  -25.5019 C.3     1  UNL1        0.0174
     32 C          45.7472   12.1307  -27.0030 C.3     1  UNL1        0.0029
     33 C          46.2932   13.5319  -27.2773 C.3     1  UNL1        0.0174
     34 C          45.4864   14.5688  -26.4926 C.3     1  UNL1        0.0721
     35 C          48.5819   12.9548  -17.9897 C.3     1  UNL1        0.2074
     36 C          49.5108   11.8057  -16.2043 C.3     1  UNL1        0.1747
     37 O          49.1047   11.7156  -17.5530 O.3     1  UNL1       -0.3430
@<TRIPOS>BOND
     1    36    37    1
     2    37    35    1
     3    35     1    1
     4     1     2   ar
     5     2     3   ar
     6     3    24    1
     7    24    25    1
     8    25    26    1
     9    26    27    1
    10    27    29    1
    11    29    30    1
    12    30    31    1
    13    31    32    1
    14    32    33    1
    15    33    34    1
    16    27    28    1
    17     3     4   ar
    18     4     5   ar
    19     5    11    1
    20    11    12   ar
    21    12    13   ar
    22    13    14   ar
    23    14    15    1
    24    14    16   ar
    25    16    17    1
    26    17    18   ar
    27    18    19   ar
    28    19    20   ar
    29    20    21    1
    30    20    22   ar
    31    22    23   ar
    32     5     6   ar
    33     6     7   ar
    34     7     8    1
    35     7     9   ar
    36     9    10   ar
    37    10     1   ar
    38    28    24    1
    39     9     4   ar
    40    34    29    1
    41    16    11   ar
    42    23    17   ar
