@<TRIPOS>MOLECULE
*****
 49 54 0 0 0
SMALL
GASTEIGER

@<TRIPOS>ATOM
      1 C          13.6484   82.5654   24.4380 C.2     1  UNL1        0.2483
      2 O          14.8602   82.2140   24.4263 O.2     1  UNL1       -0.2701
      3 N          13.2891   83.8983   24.0407 N.am    1  UNL1       -0.2945
      4 H          12.2890   84.1037   23.8164 H       1  UNL1        0.1501
      5 C          10.6043   79.7451   25.5746 C.ar    1  UNL1        0.0502
      6 C          10.3220   81.1181   25.5082 C.ar    1  UNL1        0.0148
      7 C          11.3147   82.0266   25.1327 C.ar    1  UNL1        0.0080
      8 C          12.6125   81.5822   24.8284 C.ar    1  UNL1        0.0808
      9 C          12.8918   80.2023   24.8822 C.ar    1  UNL1        0.1457
     10 F          14.1109   79.7204   24.5309 F       1  UNL1       -0.2040
     11 C          11.8946   79.2963   25.2567 C.ar    1  UNL1        0.0443
     12 N           8.0749   76.7438   27.0279 N.pl3   1  UNL1       -0.3034
     13 C           9.0140   76.4171   25.9524 C.3     1  UNL1        0.1123
     14 C           9.2766   77.6575   25.0994 C.3     1  UNL1        0.1122
     15 N           9.5859   78.8040   25.9630 N.pl3   1  UNL1       -0.3040
     16 C           8.6360   79.1333   27.0330 C.3     1  UNL1        0.1122
     17 C           8.3579   77.8953   27.8879 C.3     1  UNL1        0.1123
     18 C           5.1831   73.8745   28.2404 C.ar    1  UNL1       -0.0216
     19 C           4.8550   74.8881   27.3209 C.ar    1  UNL1       -0.0030
     20 C           5.8130   75.8259   26.9294 C.ar    1  UNL1        0.0151
     21 C           7.1113   75.7690   27.4465 C.ar    1  UNL1        0.0586
     22 C           7.4506   74.7615   28.3663 C.ar    1  UNL1        0.0706
     23 CL          9.0698   74.6566   29.0436 Cl      1  UNL1       -0.0810
     24 C           6.4894   73.8223   28.7577 C.ar    1  UNL1        0.0084
     25 C           3.8297   72.9888   30.1675 C.3     1  UNL1        0.0047
     26 C           4.1532   72.8487   28.6753 C.3     1  UNL1        0.0224
     27 C           4.6161   71.4254   28.3422 C.3     1  UNL1        0.0047
     28 C          14.2991   84.9209   23.7537 C.3     1  UNL1        0.1535
     29 C          14.7151   84.8390   22.3071 C.2     1  UNL1        0.2443
     30 O          15.4839   83.9108   21.9349 O.2     1  UNL1       -0.2730
     31 N          14.1440   85.7455   21.3487 N.am    1  UNL1       -0.2825
     32 H          13.4088   86.4073   21.6866 H       1  UNL1        0.1549
     33 C          14.3191   85.6187   19.9287 C.ar    1  UNL1        0.0535
     34 C          15.0065   84.5305   19.3675 C.ar    1  UNL1        0.0353
     35 C          15.1550   84.4526   17.9803 C.ar    1  UNL1        0.1002
     36 N          14.6477   85.4301   17.1834 N.ar    1  UNL1       -0.2422
     37 C          13.9943   86.5035   17.7014 C.ar    1  UNL1        0.1002
     38 C          13.8279   86.6221   19.0828 C.ar    1  UNL1        0.0353
     39 C          13.7445   86.3202   24.0824 C.3     1  UNL1        0.0569
     40 C          14.6506   87.0699   25.0191 C.ar    1  UNL1       -0.0017
     41 C          14.4775   87.2137   26.3925 C.ar    1  UNL1        0.0681
     42 N          15.5492   87.8286   26.9424 N.ar    1  UNL1       -0.3523
     43 C          16.4040   88.0614   25.9314 C.ar    1  UNL1        0.0563
     44 C          17.6728   88.6335   26.0137 C.ar    1  UNL1        0.0170
     45 C          18.4248   88.7394   24.8296 C.ar    1  UNL1        0.0015
     46 C          17.8991   88.2741   23.6041 C.ar    1  UNL1        0.0001
     47 C          16.6162   87.7000   23.5511 C.ar    1  UNL1        0.0012
     48 C          15.8922   87.6114   24.7412 C.ar    1  UNL1        0.0131
     49 H          15.6930   88.0481   27.9532 H       1  UNL1        0.1660
@<TRIPOS>BOND
     1    25    26    1
     2    26    27    1
     3    26    18    1
     4    18    19   ar
     5    19    20   ar
     6    20    21   ar
     7    21    12    1
     8    12    13    1
     9    13    14    1
    10    14    15    1
    11    15     5    1
    12     5     6   ar
    13     6     7   ar
    14     7     8   ar
    15     8     1    1
    16     1     2    2
    17     1     3   am
    18     3    28    1
    19    28    39    1
    20    39    40    1
    21    40    41   ar
    22    41    42   ar
    23    42    43   ar
    24    43    44   ar
    25    44    45   ar
    26    45    46   ar
    27    46    47   ar
    28    47    48   ar
    29    28    29    1
    30    29    30    2
    31    29    31   am
    32    31    33    1
    33    33    34   ar
    34    34    35   ar
    35    35    36   ar
    36    36    37   ar
    37    37    38   ar
    38     8     9   ar
    39     9    10    1
    40     9    11   ar
    41    15    16    1
    42    16    17    1
    43    21    22   ar
    44    22    23    1
    45    22    24   ar
    46    24    18   ar
    47    17    12    1
    48    11     5   ar
    49    48    40   ar
    50    38    33   ar
    51    48    43   ar
    52     3     4    1
    53    42    49    1
    54    31    32    1
@<TRIPOS>MOLECULE
*****
 49 54 0 0 0
SMALL
GASTEIGER

@<TRIPOS>ATOM
      1 C           8.8450   78.3044   25.1958 C.2     1  UNL1        0.2483
      2 O           7.6112   78.5655   25.2365 O.2     1  UNL1       -0.2701
      3 N           9.2830   76.9369   25.1561 N.am    1  UNL1       -0.2945
      4 H          10.2692   76.7328   24.8761 H       1  UNL1        0.1501
      5 C          11.6898   81.5278   25.0249 C.ar    1  UNL1        0.0502
      6 C          11.5221   80.6600   23.9350 C.ar    1  UNL1        0.0148
      7 C          10.5919   79.6193   23.9965 C.ar    1  UNL1        0.0080
      8 C           9.8203   79.4176   25.1534 C.ar    1  UNL1        0.0808
      9 C           9.9795   80.2973   26.2423 C.ar    1  UNL1        0.1457
     10 F           9.2082   80.1833   27.3531 F       1  UNL1       -0.2040
     11 C          10.9103   81.3388   26.1756 C.ar    1  UNL1        0.0443
     12 N          14.0330   84.9956   25.0703 N.pl3   1  UNL1       -0.3034
     13 C          13.0581   84.8154   23.9921 C.3     1  UNL1        0.1123
     14 C          12.8669   83.3257   23.7102 C.3     1  UNL1        0.1122
     15 N          12.6483   82.6010   24.9683 N.pl3   1  UNL1       -0.3040
     16 C          13.6339   82.7772   26.0421 C.3     1  UNL1        0.1122
     17 C          13.8408   84.2662   26.3262 C.3     1  UNL1        0.1123
     18 C          16.6911   88.3113   24.9964 C.ar    1  UNL1       -0.0216
     19 C          15.8344   88.0953   26.0918 C.ar    1  UNL1       -0.0030
     20 C          14.9648   87.0025   26.1058 C.ar    1  UNL1        0.0151
     21 C          14.9349   86.1086   25.0304 C.ar    1  UNL1        0.0586
     22 C          15.7854   86.3146   23.9302 C.ar    1  UNL1        0.0706
     23 CL         15.7765   85.2173   22.5564 Cl      1  UNL1       -0.0810
     24 C          16.6564   87.4102   23.9177 C.ar    1  UNL1        0.0084
     25 C          18.4710   89.5040   23.6774 C.3     1  UNL1        0.0047
     26 C          17.6412   89.4939   24.9668 C.3     1  UNL1        0.0224
     27 C          18.5453   89.5075   26.2051 C.3     1  UNL1        0.0047
     28 C           8.3477   75.8183   25.3048 C.3     1  UNL1        0.1535
     29 C           8.8270   74.6384   24.4981 C.2     1  UNL1        0.2443
     30 O           7.9857   73.8155   24.0438 O.2     1  UNL1       -0.2730
     31 N          10.2192   74.5252   24.1586 N.am    1  UNL1       -0.2825
     32 H          10.8523   75.3061   24.4449 H       1  UNL1        0.1549
     33 C          10.7378   73.5574   23.2325 C.ar    1  UNL1        0.0535
     34 C          12.0622   73.6191   22.7704 C.ar    1  UNL1        0.0353
     35 C          12.5204   72.6571   21.8664 C.ar    1  UNL1        0.1002
     36 N          11.6849   71.6775   21.4300 N.ar    1  UNL1       -0.2422
     37 C          10.3932   71.6054   21.8468 C.ar    1  UNL1        0.1002
     38 C           9.8941   72.5497   22.7465 C.ar    1  UNL1        0.0353
     39 C           8.2063   75.4399   26.7916 C.3     1  UNL1        0.0569
     40 C           9.1421   76.2361   27.6579 C.ar    1  UNL1       -0.0017
     41 C          10.5297   76.2705   27.5558 C.ar    1  UNL1        0.0681
     42 N          11.0432   77.1945   28.3993 N.ar    1  UNL1       -0.3523
     43 C           9.9920   77.7543   29.0226 C.ar    1  UNL1        0.0563
     44 C          10.0171   78.7948   29.9505 C.ar    1  UNL1        0.0170
     45 C           8.7869   79.2649   30.4451 C.ar    1  UNL1        0.0015
     46 C           7.5730   78.6930   30.0045 C.ar    1  UNL1        0.0001
     47 C           7.5780   77.6450   29.0666 C.ar    1  UNL1        0.0012
     48 C           8.8135   77.1973   28.5962 C.ar    1  UNL1        0.0131
     49 H          12.0510   77.4416   28.5167 H       1  UNL1        0.1660
@<TRIPOS>BOND
     1    25    26    1
     2    26    27    1
     3    26    18    1
     4    18    19   ar
     5    19    20   ar
     6    20    21   ar
     7    21    12    1
     8    12    13    1
     9    13    14    1
    10    14    15    1
    11    15     5    1
    12     5     6   ar
    13     6     7   ar
    14     7     8   ar
    15     8     1    1
    16     1     2    2
    17     1     3   am
    18     3    28    1
    19    28    39    1
    20    39    40    1
    21    40    41   ar
    22    41    42   ar
    23    42    43   ar
    24    43    44   ar
    25    44    45   ar
    26    45    46   ar
    27    46    47   ar
    28    47    48   ar
    29    28    29    1
    30    29    30    2
    31    29    31   am
    32    31    33    1
    33    33    34   ar
    34    34    35   ar
    35    35    36   ar
    36    36    37   ar
    37    37    38   ar
    38     8     9   ar
    39     9    10    1
    40     9    11   ar
    41    15    16    1
    42    16    17    1
    43    21    22   ar
    44    22    23    1
    45    22    24   ar
    46    24    18   ar
    47    17    12    1
    48    11     5   ar
    49    48    40   ar
    50    38    33   ar
    51    48    43   ar
    52     3     4    1
    53    42    49    1
    54    31    32    1
@<TRIPOS>MOLECULE
*****
 49 54 0 0 0
SMALL
GASTEIGER

@<TRIPOS>ATOM
      1 C           9.8563   75.9725   25.7424 C.2     1  UNL1        0.2483
      2 O          10.3787   75.1037   26.4937 O.2     1  UNL1       -0.2701
      3 N           8.5775   75.7173   25.1397 N.am    1  UNL1       -0.2945
      4 H           8.0456   76.5189   24.7309 H       1  UNL1        0.1501
      5 C          11.8661   79.7293   25.1433 C.ar    1  UNL1        0.0502
      6 C          10.7874   79.6265   26.0348 C.ar    1  UNL1        0.0148
      7 C          10.1440   78.4015   26.2279 C.ar    1  UNL1        0.0080
      8 C          10.5578   77.2579   25.5241 C.ar    1  UNL1        0.0808
      9 C          11.6494   77.3586   24.6391 C.ar    1  UNL1        0.1457
     10 F          12.1276   76.2670   23.9900 F       1  UNL1       -0.2040
     11 C          12.2918   78.5864   24.4505 C.ar    1  UNL1        0.0443
     12 N          13.5582   83.5568   25.0727 N.pl3   1  UNL1       -0.3034
     13 C          12.1414   83.4041   24.7342 C.3     1  UNL1        0.1123
     14 C          11.9024   82.0283   24.1137 C.3     1  UNL1        0.1122
     15 N          12.5321   80.9896   24.9385 N.pl3   1  UNL1       -0.3040
     16 C          13.9551   81.1423   25.2664 C.3     1  UNL1        0.1122
     17 C          14.2078   82.5210   25.8796 C.3     1  UNL1        0.1123
     18 C          15.4129   87.3613   24.6841 C.ar    1  UNL1       -0.0216
     19 C          14.8447   86.9550   25.9058 C.ar    1  UNL1       -0.0030
     20 C          14.2376   85.7027   26.0224 C.ar    1  UNL1        0.0151
     21 C          14.1872   84.8361   24.9256 C.ar    1  UNL1        0.0586
     22 C          14.7507   85.2314   23.6999 C.ar    1  UNL1        0.0706
     23 CL         14.7052   84.1743   22.2956 Cl      1  UNL1       -0.0810
     24 C          15.3589   86.4868   23.5845 C.ar    1  UNL1        0.0084
     25 C          16.5784   88.9411   23.1105 C.3     1  UNL1        0.0047
     26 C          16.0758   88.7187   24.5419 C.3     1  UNL1        0.0224
     27 C          17.2114   88.8883   25.5581 C.3     1  UNL1        0.0047
     28 C           7.9131   74.4157   25.2518 C.3     1  UNL1        0.1535
     29 C           6.7243   74.5244   26.1724 C.2     1  UNL1        0.2443
     30 O           5.6223   74.9343   25.7157 O.2     1  UNL1       -0.2730
     31 N           6.8262   74.0540   27.5269 N.am    1  UNL1       -0.2825
     32 H           7.7216   73.5980   27.8149 H       1  UNL1        0.1549
     33 C           5.7032   73.9275   28.4135 C.ar    1  UNL1        0.0535
     34 C           5.4156   74.9057   29.3789 C.ar    1  UNL1        0.0353
     35 C           4.3142   74.7367   30.2220 C.ar    1  UNL1        0.1002
     36 N           3.5360   73.6272   30.1144 N.ar    1  UNL1       -0.2422
     37 C           3.8026   72.6563   29.2014 C.ar    1  UNL1        0.1002
     38 C           4.8964   72.7841   28.3427 C.ar    1  UNL1        0.0353
     39 C           7.4796   73.9205   23.8588 C.3     1  UNL1        0.0569
     40 C           8.5238   74.2114   22.8170 C.ar    1  UNL1       -0.0017
     41 C           8.5352   75.2944   21.9431 C.ar    1  UNL1        0.0681
     42 N           9.6890   75.3210   21.2379 N.ar    1  UNL1       -0.3523
     43 C          10.4126   74.2733   21.6688 C.ar    1  UNL1        0.0563
     44 C          11.6996   73.9151   21.2695 C.ar    1  UNL1        0.0170
     45 C          12.2947   72.8014   21.8895 C.ar    1  UNL1        0.0015
     46 C          11.5993   72.0803   22.8850 C.ar    1  UNL1        0.0001
     47 C          10.3021   72.4652   23.2688 C.ar    1  UNL1        0.0012
     48 C           9.7361   73.5719   22.6339 C.ar    1  UNL1        0.0131
     49 H           9.9698   76.0316   20.5261 H       1  UNL1        0.1660
@<TRIPOS>BOND
     1    25    26    1
     2    26    27    1
     3    26    18    1
     4    18    19   ar
     5    19    20   ar
     6    20    21   ar
     7    21    12    1
     8    12    13    1
     9    13    14    1
    10    14    15    1
    11    15     5    1
    12     5     6   ar
    13     6     7   ar
    14     7     8   ar
    15     8     1    1
    16     1     2    2
    17     1     3   am
    18     3    28    1
    19    28    39    1
    20    39    40    1
    21    40    41   ar
    22    41    42   ar
    23    42    43   ar
    24    43    44   ar
    25    44    45   ar
    26    45    46   ar
    27    46    47   ar
    28    47    48   ar
    29    28    29    1
    30    29    30    2
    31    29    31   am
    32    31    33    1
    33    33    34   ar
    34    34    35   ar
    35    35    36   ar
    36    36    37   ar
    37    37    38   ar
    38     8     9   ar
    39     9    10    1
    40     9    11   ar
    41    15    16    1
    42    16    17    1
    43    21    22   ar
    44    22    23    1
    45    22    24   ar
    46    24    18   ar
    47    17    12    1
    48    11     5   ar
    49    48    40   ar
    50    38    33   ar
    51    48    43   ar
    52     3     4    1
    53    42    49    1
    54    31    32    1
@<TRIPOS>MOLECULE
*****
 49 54 0 0 0
SMALL
GASTEIGER

@<TRIPOS>ATOM
      1 C           8.6733   78.6614   25.9287 C.2     1  UNL1        0.2483
      2 O           7.9884   78.7075   26.9874 O.2     1  UNL1       -0.2701
      3 N           8.4333   77.6193   24.9695 N.am    1  UNL1       -0.2945
      4 H           8.8187   77.7265   24.0038 H       1  UNL1        0.1501
      5 C          11.6357   81.7070   25.2492 C.ar    1  UNL1        0.0502
      6 C          11.2095   81.3976   26.5499 C.ar    1  UNL1        0.0148
      7 C          10.2513   80.4032   26.7622 C.ar    1  UNL1        0.0080
      8 C           9.6909   79.7073   25.6779 C.ar    1  UNL1        0.0808
      9 C          10.1288   80.0089   24.3732 C.ar    1  UNL1        0.1457
     10 F           9.6665   79.3161   23.3017 F       1  UNL1       -0.2040
     11 C          11.0896   81.0036   24.1654 C.ar    1  UNL1        0.0443
     12 N          14.0910   85.0683   24.8129 N.pl3   1  UNL1       -0.3034
     13 C          13.0180   84.8460   23.8410 C.3     1  UNL1        0.1123
     14 C          12.7513   83.3482   23.6974 C.3     1  UNL1        0.1122
     15 N          12.6215   82.7322   25.0238 N.pl3   1  UNL1       -0.3040
     16 C          13.7048   82.9497   25.9906 C.3     1  UNL1        0.1122
     17 C          13.9872   84.4464   26.1351 C.3     1  UNL1        0.1123
     18 C          16.8422   88.2574   24.2417 C.ar    1  UNL1       -0.0216
     19 C          16.0356   88.1953   25.3933 C.ar    1  UNL1       -0.0030
     20 C          15.1348   87.1430   25.5709 C.ar    1  UNL1        0.0151
     21 C          15.0234   86.1368   24.6057 C.ar    1  UNL1        0.0586
     22 C          15.8233   86.1885   23.4508 C.ar    1  UNL1        0.0706
     23 CL         15.7116   84.9464   22.2113 Cl      1  UNL1       -0.0810
     24 C          16.7257   87.2438   23.2743 C.ar    1  UNL1        0.0084
     25 C          18.5813   89.2370   22.7100 C.3     1  UNL1        0.0047
     26 C          17.8253   89.3943   24.0348 C.3     1  UNL1        0.0224
     27 C          18.7975   89.5060   25.2151 C.3     1  UNL1        0.0047
     28 C           7.5102   76.5135   25.2403 C.3     1  UNL1        0.1535
     29 C           6.7770   76.1369   23.9782 C.2     1  UNL1        0.2443
     30 O           6.3528   77.0457   23.2132 O.2     1  UNL1       -0.2730
     31 N           6.6692   74.7536   23.6021 N.am    1  UNL1       -0.2825
     32 H           7.1565   74.0496   24.2017 H       1  UNL1        0.1549
     33 C           6.1729   74.3099   22.3293 C.ar    1  UNL1        0.0535
     34 C           4.8167   74.4317   21.9866 C.ar    1  UNL1        0.0353
     35 C           4.3801   73.9817   20.7379 C.ar    1  UNL1        0.1002
     36 N           5.2611   73.4198   19.8683 N.ar    1  UNL1       -0.2422
     37 C           6.5755   73.2728   20.1818 C.ar    1  UNL1        0.1002
     38 C           7.0522   73.7052   21.4212 C.ar    1  UNL1        0.0353
     39 C           8.2822   75.3047   25.8029 C.3     1  UNL1        0.0569
     40 C           8.0922   75.1677   27.2880 C.ar    1  UNL1       -0.0017
     41 C           8.9499   75.6442   28.2749 C.ar    1  UNL1        0.0681
     42 N           8.4046   75.4694   29.5002 N.ar    1  UNL1       -0.3523
     43 C           7.2041   74.9003   29.2954 C.ar    1  UNL1        0.0563
     44 C           6.2499   74.5732   30.2580 C.ar    1  UNL1        0.0170
     45 C           5.0312   74.0263   29.8170 C.ar    1  UNL1        0.0015
     46 C           4.7949   73.8233   28.4394 C.ar    1  UNL1        0.0001
     47 C           5.7754   74.1638   27.4904 C.ar    1  UNL1        0.0012
     48 C           6.9759   74.7013   27.9578 C.ar    1  UNL1        0.0131
     49 H           8.8219   75.7498   30.4155 H       1  UNL1        0.1660
@<TRIPOS>BOND
     1    25    26    1
     2    26    27    1
     3    26    18    1
     4    18    19   ar
     5    19    20   ar
     6    20    21   ar
     7    21    12    1
     8    12    13    1
     9    13    14    1
    10    14    15    1
    11    15     5    1
    12     5     6   ar
    13     6     7   ar
    14     7     8   ar
    15     8     1    1
    16     1     2    2
    17     1     3   am
    18     3    28    1
    19    28    39    1
    20    39    40    1
    21    40    41   ar
    22    41    42   ar
    23    42    43   ar
    24    43    44   ar
    25    44    45   ar
    26    45    46   ar
    27    46    47   ar
    28    47    48   ar
    29    28    29    1
    30    29    30    2
    31    29    31   am
    32    31    33    1
    33    33    34   ar
    34    34    35   ar
    35    35    36   ar
    36    36    37   ar
    37    37    38   ar
    38     8     9   ar
    39     9    10    1
    40     9    11   ar
    41    15    16    1
    42    16    17    1
    43    21    22   ar
    44    22    23    1
    45    22    24   ar
    46    24    18   ar
    47    17    12    1
    48    11     5   ar
    49    48    40   ar
    50    38    33   ar
    51    48    43   ar
    52     3     4    1
    53    42    49    1
    54    31    32    1
@<TRIPOS>MOLECULE
*****
 49 54 0 0 0
SMALL
GASTEIGER

@<TRIPOS>ATOM
      1 C           8.7671   78.6487   25.7790 C.2     1  UNL1        0.2483
      2 O           7.6790   78.9275   26.3540 O.2     1  UNL1       -0.2701
      3 N           8.9931   77.3176   25.2883 N.am    1  UNL1       -0.2945
      4 H           9.7704   77.1579   24.6079 H       1  UNL1        0.1501
      5 C          11.7044   81.7342   25.1758 C.ar    1  UNL1        0.0502
      6 C          11.1652   81.0336   24.0861 C.ar    1  UNL1        0.0148
      7 C          10.2075   80.0371   24.2902 C.ar    1  UNL1        0.0080
      8 C           9.7793   79.7123   25.5885 C.ar    1  UNL1        0.0808
      9 C          10.3111   80.4252   26.6812 C.ar    1  UNL1        0.1457
     10 F           9.8775   80.1935   27.9462 F       1  UNL1       -0.2040
     11 C          11.2680   81.4232   26.4721 C.ar    1  UNL1        0.0443
     12 N          14.1646   85.0990   24.7964 N.pl3   1  UNL1       -0.3034
     13 C          13.1091   84.8797   23.8048 C.3     1  UNL1        0.1123
     14 C          12.8463   83.3823   23.6505 C.3     1  UNL1        0.1122
     15 N          12.6933   82.7610   24.9720 N.pl3   1  UNL1       -0.3040
     16 C          13.7590   82.9756   25.9588 C.3     1  UNL1        0.1122
     17 C          14.0377   84.4719   26.1142 C.3     1  UNL1        0.1123
     18 C          16.9240   88.2915   24.2875 C.ar    1  UNL1       -0.0216
     19 C          16.1218   88.2056   25.4406 C.ar    1  UNL1       -0.0030
     20 C          15.2182   87.1524   25.5976 C.ar    1  UNL1        0.0151
     21 C          15.0996   86.1689   24.6100 C.ar    1  UNL1        0.0586
     22 C          15.8951   86.2446   23.4535 C.ar    1  UNL1        0.0706
     23 CL         15.7744   85.0317   22.1862 Cl      1  UNL1       -0.0810
     24 C          16.8003   87.3008   23.2975 C.ar    1  UNL1        0.0084
     25 C          18.6559   89.3037   22.7689 C.3     1  UNL1        0.0047
     26 C          17.9100   89.4297   24.1027 C.3     1  UNL1        0.0224
     27 C          18.8911   89.5073   25.2784 C.3     1  UNL1        0.0047
     28 C           8.0569   76.2225   25.5571 C.3     1  UNL1        0.1535
     29 C           7.8351   75.4177   24.3019 C.2     1  UNL1        0.2443
     30 O           8.5257   74.3817   24.0999 O.2     1  UNL1       -0.2730
     31 N           6.7664   75.7713   23.4079 N.am    1  UNL1       -0.2825
     32 H           6.1378   76.5568   23.6916 H       1  UNL1        0.1549
     33 C           6.3490   74.9550   22.3021 C.ar    1  UNL1        0.0535
     34 C           7.2434   74.5803   21.2868 C.ar    1  UNL1        0.0353
     35 C           6.7898   73.7884   20.2287 C.ar    1  UNL1        0.1002
     36 N           5.4894   73.3954   20.1788 N.ar    1  UNL1       -0.2422
     37 C           4.5982   73.7592   21.1385 C.ar    1  UNL1        0.1002
     38 C           5.0095   74.5538   22.2107 C.ar    1  UNL1        0.0353
     39 C           8.5986   75.3281   26.6887 C.3     1  UNL1        0.0569
     40 C           9.2563   76.1394   27.7701 C.ar    1  UNL1       -0.0017
     41 C          10.6071   76.4649   27.8486 C.ar    1  UNL1        0.0681
     42 N          10.8289   77.3197   28.8730 N.ar    1  UNL1       -0.3523
     43 C           9.6286   77.5484   29.4332 C.ar    1  UNL1        0.0563
     44 C           9.3426   78.4047   30.4958 C.ar    1  UNL1        0.0170
     45 C           7.9996   78.5326   30.8945 C.ar    1  UNL1        0.0015
     46 C           6.9838   77.8122   30.2282 C.ar    1  UNL1        0.0001
     47 C           7.3015   76.9563   29.1584 C.ar    1  UNL1        0.0012
     48 C           8.6427   76.8471   28.7875 C.ar    1  UNL1        0.0131
     49 H          11.7444   77.7389   29.1497 H       1  UNL1        0.1660
@<TRIPOS>BOND
     1    25    26    1
     2    26    27    1
     3    26    18    1
     4    18    19   ar
     5    19    20   ar
     6    20    21   ar
     7    21    12    1
     8    12    13    1
     9    13    14    1
    10    14    15    1
    11    15     5    1
    12     5     6   ar
    13     6     7   ar
    14     7     8   ar
    15     8     1    1
    16     1     2    2
    17     1     3   am
    18     3    28    1
    19    28    39    1
    20    39    40    1
    21    40    41   ar
    22    41    42   ar
    23    42    43   ar
    24    43    44   ar
    25    44    45   ar
    26    45    46   ar
    27    46    47   ar
    28    47    48   ar
    29    28    29    1
    30    29    30    2
    31    29    31   am
    32    31    33    1
    33    33    34   ar
    34    34    35   ar
    35    35    36   ar
    36    36    37   ar
    37    37    38   ar
    38     8     9   ar
    39     9    10    1
    40     9    11   ar
    41    15    16    1
    42    16    17    1
    43    21    22   ar
    44    22    23    1
    45    22    24   ar
    46    24    18   ar
    47    17    12    1
    48    11     5   ar
    49    48    40   ar
    50    38    33   ar
    51    48    43   ar
    52     3     4    1
    53    42    49    1
    54    31    32    1
@<TRIPOS>MOLECULE
*****
 49 54 0 0 0
SMALL
GASTEIGER

@<TRIPOS>ATOM
      1 C           9.0515   76.0083   26.5165 C.2     1  UNL1        0.2483
      2 O           9.4036   75.3830   27.5544 O.2     1  UNL1       -0.2701
      3 N           7.9035   75.5674   25.7740 N.am    1  UNL1       -0.2945
      4 H           7.4761   76.2177   25.0761 H       1  UNL1        0.1501
      5 C          11.2961   79.4726   25.3029 C.ar    1  UNL1        0.0502
      6 C          11.8959   78.2044   25.3369 C.ar    1  UNL1        0.0148
      7 C          11.1583   77.0837   25.7266 C.ar    1  UNL1        0.0080
      8 C           9.8102   77.2104   26.1024 C.ar    1  UNL1        0.0808
      9 C           9.2048   78.4817   26.0553 C.ar    1  UNL1        0.1457
     10 F           7.8883   78.6413   26.3431 F       1  UNL1       -0.2040
     11 C           9.9464   79.6004   25.6627 C.ar    1  UNL1        0.0443
     12 N          13.3619   83.0604   24.6882 N.pl3   1  UNL1       -0.3034
     13 C          11.8999   83.0625   24.5991 C.3     1  UNL1        0.1123
     14 C          11.4080   81.6960   24.1238 C.3     1  UNL1        0.1122
     15 N          12.0517   80.6318   24.9040 N.pl3   1  UNL1       -0.3040
     16 C          13.5178   80.6285   24.9816 C.3     1  UNL1        0.1122
     17 C          14.0223   81.9957   25.4473 C.3     1  UNL1        0.1123
     18 C          15.5321   86.5614   23.6399 C.ar    1  UNL1       -0.0216
     19 C          15.1809   85.6090   22.6651 C.ar    1  UNL1       -0.0030
     20 C          14.4677   84.4621   23.0205 C.ar    1  UNL1        0.0151
     21 C          14.0932   84.2458   24.3508 C.ar    1  UNL1        0.0586
     22 C          14.4391   85.1897   25.3334 C.ar    1  UNL1        0.0706
     23 CL         13.9916   84.9544   27.0174 Cl      1  UNL1       -0.0810
     24 C          15.1539   86.3388   24.9757 C.ar    1  UNL1        0.0084
     25 C          16.5360   87.8917   21.7551 C.3     1  UNL1        0.0047
     26 C          16.3067   87.8122   23.2691 C.3     1  UNL1        0.0224
     27 C          17.6339   87.8870   24.0330 C.3     1  UNL1        0.0047
     28 C           7.2008   74.3229   26.0988 C.3     1  UNL1        0.1535
     29 C           6.3253   74.5291   27.3086 C.2     1  UNL1        0.2443
     30 O           5.7354   73.5396   27.8225 O.2     1  UNL1       -0.2730
     31 N           6.2623   75.8234   27.9307 N.am    1  UNL1       -0.2825
     32 H           6.8770   76.5761   27.5456 H       1  UNL1        0.1549
     33 C           5.6240   76.0708   29.1934 C.ar    1  UNL1        0.0535
     34 C           4.2919   76.5080   29.2701 C.ar    1  UNL1        0.0353
     35 C           3.7151   76.7393   30.5216 C.ar    1  UNL1        0.1002
     36 N           4.4438   76.5535   31.6540 N.ar    1  UNL1       -0.2422
     37 C           5.7406   76.1488   31.6079 C.ar    1  UNL1        0.1002
     38 C           6.3564   75.9108   30.3773 C.ar    1  UNL1        0.0353
     39 C           6.3625   73.8575   24.8929 C.3     1  UNL1        0.0569
     40 C           5.8990   75.0190   24.0584 C.ar    1  UNL1       -0.0017
     41 C           6.3224   75.3268   22.7689 C.ar    1  UNL1        0.0681
     42 N           5.6005   76.3543   22.2667 N.ar    1  UNL1       -0.3523
     43 C           4.7153   76.6888   23.2215 C.ar    1  UNL1        0.0563
     44 C           3.7219   77.6644   23.1470 C.ar    1  UNL1        0.0170
     45 C           2.8656   77.8170   24.2526 C.ar    1  UNL1        0.0015
     46 C           3.0177   76.9989   25.3937 C.ar    1  UNL1        0.0001
     47 C           4.0282   76.0217   25.4406 C.ar    1  UNL1        0.0012
     48 C           4.8647   75.8957   24.3303 C.ar    1  UNL1        0.0131
     49 H           5.6943   76.7784   21.3170 H       1  UNL1        0.1660
@<TRIPOS>BOND
     1    25    26    1
     2    26    27    1
     3    26    18    1
     4    18    19   ar
     5    19    20   ar
     6    20    21   ar
     7    21    12    1
     8    12    13    1
     9    13    14    1
    10    14    15    1
    11    15     5    1
    12     5     6   ar
    13     6     7   ar
    14     7     8   ar
    15     8     1    1
    16     1     2    2
    17     1     3   am
    18     3    28    1
    19    28    39    1
    20    39    40    1
    21    40    41   ar
    22    41    42   ar
    23    42    43   ar
    24    43    44   ar
    25    44    45   ar
    26    45    46   ar
    27    46    47   ar
    28    47    48   ar
    29    28    29    1
    30    29    30    2
    31    29    31   am
    32    31    33    1
    33    33    34   ar
    34    34    35   ar
    35    35    36   ar
    36    36    37   ar
    37    37    38   ar
    38     8     9   ar
    39     9    10    1
    40     9    11   ar
    41    15    16    1
    42    16    17    1
    43    21    22   ar
    44    22    23    1
    45    22    24   ar
    46    24    18   ar
    47    17    12    1
    48    11     5   ar
    49    48    40   ar
    50    38    33   ar
    51    48    43   ar
    52     3     4    1
    53    42    49    1
    54    31    32    1
@<TRIPOS>MOLECULE
*****
 49 54 0 0 0
SMALL
GASTEIGER

@<TRIPOS>ATOM
      1 C           8.7826   78.5042   25.8940 C.2     1  UNL1        0.2483
      2 O           7.7020   78.7620   26.4924 O.2     1  UNL1       -0.2701
      3 N           9.0171   77.1815   25.3849 N.am    1  UNL1       -0.2945
      4 H           9.7834   77.0395   24.6882 H       1  UNL1        0.1501
      5 C          11.6686   81.6334   25.2687 C.ar    1  UNL1        0.0502
      6 C          11.1751   80.8858   24.1886 C.ar    1  UNL1        0.0148
      7 C          10.2338   79.8752   24.3997 C.ar    1  UNL1        0.0080
      8 C           9.7766   79.5834   25.6959 C.ar    1  UNL1        0.0808
      9 C          10.2623   80.3432   26.7784 C.ar    1  UNL1        0.1457
     10 F           9.7987   80.1433   28.0381 F       1  UNL1       -0.2040
     11 C          11.2030   81.3551   26.5623 C.ar    1  UNL1        0.0443
     12 N          14.0772   85.0339   24.8771 N.pl3   1  UNL1       -0.3034
     13 C          13.0109   84.8067   23.8991 C.3     1  UNL1        0.1123
     14 C          12.7661   83.3069   23.7385 C.3     1  UNL1        0.1122
     15 N          12.6404   82.6749   25.0578 N.pl3   1  UNL1       -0.3040
     16 C          13.7171   82.8976   26.0309 C.3     1  UNL1        0.1122
     17 C          13.9776   84.3965   26.1923 C.3     1  UNL1        0.1123
     18 C          16.7848   88.2675   24.3502 C.ar    1  UNL1       -0.0216
     19 C          15.9816   88.1770   25.5023 C.ar    1  UNL1       -0.0030
     20 C          15.0952   87.1102   25.6653 C.ar    1  UNL1        0.0151
     21 C          14.9949   86.1177   24.6848 C.ar    1  UNL1        0.0586
     22 C          15.7915   86.1979   23.5293 C.ar    1  UNL1        0.0706
     23 CL         15.6935   84.9739   22.2708 Cl      1  UNL1       -0.0810
     24 C          16.6795   87.2677   23.3674 C.ar    1  UNL1        0.0084
     25 C          18.4630   89.3266   22.8035 C.3     1  UNL1        0.0047
     26 C          17.7524   89.4205   24.1590 C.3     1  UNL1        0.0224
     27 C          18.7642   89.4893   25.3089 C.3     1  UNL1        0.0047
     28 C           8.1010   76.0709   25.6596 C.3     1  UNL1        0.1535
     29 C           7.8425   75.9740   27.1416 C.2     1  UNL1        0.2443
     30 O           8.7127   75.4499   27.8894 O.2     1  UNL1       -0.2730
     31 N           6.6648   76.5793   27.7010 N.am    1  UNL1       -0.2825
     32 H           6.0448   77.1191   27.0554 H       1  UNL1        0.1549
     33 C           6.4326   76.7169   29.1118 C.ar    1  UNL1        0.0535
     34 C           5.5471   75.8693   29.7966 C.ar    1  UNL1        0.0353
     35 C           5.3506   76.0445   31.1689 C.ar    1  UNL1        0.1002
     36 N           6.0034   77.0362   31.8310 N.ar    1  UNL1       -0.2422
     37 C           6.8517   77.8823   31.1891 C.ar    1  UNL1        0.1002
     38 C           7.0729   77.7445   29.8172 C.ar    1  UNL1        0.0353
     39 C           6.7819   76.2693   24.8887 C.3     1  UNL1        0.0569
     40 C           6.6348   75.2702   23.7749 C.ar    1  UNL1       -0.0017
     41 C           7.4363   74.1529   23.5603 C.ar    1  UNL1        0.0681
     42 N           6.9382   73.3999   22.5533 N.ar    1  UNL1       -0.3523
     43 C           5.8216   74.0235   22.1395 C.ar    1  UNL1        0.0563
     44 C           4.9347   73.5989   21.1511 C.ar    1  UNL1        0.0170
     45 C           3.7933   74.3850   20.9095 C.ar    1  UNL1        0.0015
     46 C           3.5651   75.5629   21.6545 C.ar    1  UNL1        0.0001
     47 C           4.4765   75.9665   22.6467 C.ar    1  UNL1        0.0012
     48 C           5.6014   75.1686   22.8617 C.ar    1  UNL1        0.0131
     49 H           7.3283   72.5004   22.1939 H       1  UNL1        0.1660
@<TRIPOS>BOND
     1    25    26    1
     2    26    27    1
     3    26    18    1
     4    18    19   ar
     5    19    20   ar
     6    20    21   ar
     7    21    12    1
     8    12    13    1
     9    13    14    1
    10    14    15    1
    11    15     5    1
    12     5     6   ar
    13     6     7   ar
    14     7     8   ar
    15     8     1    1
    16     1     2    2
    17     1     3   am
    18     3    28    1
    19    28    39    1
    20    39    40    1
    21    40    41   ar
    22    41    42   ar
    23    42    43   ar
    24    43    44   ar
    25    44    45   ar
    26    45    46   ar
    27    46    47   ar
    28    47    48   ar
    29    28    29    1
    30    29    30    2
    31    29    31   am
    32    31    33    1
    33    33    34   ar
    34    34    35   ar
    35    35    36   ar
    36    36    37   ar
    37    37    38   ar
    38     8     9   ar
    39     9    10    1
    40     9    11   ar
    41    15    16    1
    42    16    17    1
    43    21    22   ar
    44    22    23    1
    45    22    24   ar
    46    24    18   ar
    47    17    12    1
    48    11     5   ar
    49    48    40   ar
    50    38    33   ar
    51    48    43   ar
    52     3     4    1
    53    42    49    1
    54    31    32    1
@<TRIPOS>MOLECULE
*****
 49 54 0 0 0
SMALL
GASTEIGER

@<TRIPOS>ATOM
      1 C           8.9805   75.8668   26.4302 C.2     1  UNL1        0.2483
      2 O           9.3445   75.2112   27.4450 O.2     1  UNL1       -0.2701
      3 N           7.8007   75.4717   25.7121 N.am    1  UNL1       -0.2945
      4 H           7.3716   76.1473   25.0397 H       1  UNL1        0.1501
      5 C          11.2196   79.3524   25.2686 C.ar    1  UNL1        0.0502
      6 C          10.2062   79.4395   26.2353 C.ar    1  UNL1        0.0148
      7 C           9.4878   78.3017   26.6111 C.ar    1  UNL1        0.0080
      8 C           9.7594   77.0568   26.0187 C.ar    1  UNL1        0.0808
      9 C          10.7859   76.9673   25.0579 C.ar    1  UNL1        0.1457
     10 F          11.1294   75.7745   24.5093 F       1  UNL1       -0.2040
     11 C          11.5038   78.1084   24.6862 C.ar    1  UNL1        0.0443
     12 N          13.2921   82.9424   24.6903 N.pl3   1  UNL1       -0.3034
     13 C          11.8278   82.9672   24.7112 C.3     1  UNL1        0.1123
     14 C          11.2798   81.6344   24.2029 C.3     1  UNL1        0.1122
     15 N          11.9622   80.5220   24.8757 N.pl3   1  UNL1       -0.3040
     16 C          13.4298   80.4965   24.8429 C.3     1  UNL1        0.1122
     17 C          13.9896   81.8305   25.3408 C.3     1  UNL1        0.1123
     18 C          15.4390   86.4655   23.6685 C.ar    1  UNL1       -0.0216
     19 C          15.0916   85.5196   22.6861 C.ar    1  UNL1       -0.0030
     20 C          14.3861   84.3653   23.0329 C.ar    1  UNL1        0.0151
     21 C          14.0156   84.1351   24.3619 C.ar    1  UNL1        0.0586
     22 C          14.3578   85.0725   25.3521 C.ar    1  UNL1        0.0706
     23 CL         13.9150   84.8197   27.0348 Cl      1  UNL1       -0.0810
     24 C          15.0648   86.2289   25.0030 C.ar    1  UNL1        0.0084
     25 C          17.2511   88.0607   24.3768 C.3     1  UNL1        0.0047
     26 C          16.2052   87.7242   23.3072 C.3     1  UNL1        0.0224
     27 C          15.2531   88.9036   23.0760 C.3     1  UNL1        0.0047
     28 C           7.0743   74.2396   26.0320 C.3     1  UNL1        0.1535
     29 C           6.3900   74.3799   27.3679 C.2     1  UNL1        0.2443
     30 O           6.2517   73.3643   28.1030 O.2     1  UNL1       -0.2730
     31 N           6.0065   75.6827   27.8391 N.am    1  UNL1       -0.2825
     32 H           6.2669   76.5064   27.2505 H       1  UNL1        0.1549
     33 C           5.5379   75.9424   29.1718 C.ar    1  UNL1        0.0535
     34 C           4.2152   76.3426   29.4205 C.ar    1  UNL1        0.0353
     35 C           3.8066   76.5878   30.7341 C.ar    1  UNL1        0.1002
     36 N           4.6879   76.4510   31.7600 N.ar    1  UNL1       -0.2422
     37 C           5.9787   76.0829   31.5456 C.ar    1  UNL1        0.1002
     38 C           6.4290   75.8327   30.2477 C.ar    1  UNL1        0.0353
     39 C           6.0491   73.9266   24.9253 C.3     1  UNL1        0.0569
     40 C           6.7038   73.8231   23.5759 C.ar    1  UNL1       -0.0017
     41 C           8.0248   73.4623   23.3275 C.ar    1  UNL1        0.0681
     42 N           8.2387   73.3366   21.9980 N.ar    1  UNL1       -0.3523
     43 C           7.0615   73.6004   21.4051 C.ar    1  UNL1        0.0563
     44 C           6.7727   73.5489   20.0420 C.ar    1  UNL1        0.0170
     45 C           5.4518   73.8163   19.6388 C.ar    1  UNL1        0.0015
     46 C           4.4598   74.1232   20.5961 C.ar    1  UNL1        0.0001
     47 C           4.7795   74.1668   21.9650 C.ar    1  UNL1        0.0012
     48 C           6.0989   73.9004   22.3348 C.ar    1  UNL1        0.0131
     49 H           9.1315   73.0599   21.5324 H       1  UNL1        0.1660
@<TRIPOS>BOND
     1    25    26    1
     2    26    27    1
     3    26    18    1
     4    18    19   ar
     5    19    20   ar
     6    20    21   ar
     7    21    12    1
     8    12    13    1
     9    13    14    1
    10    14    15    1
    11    15     5    1
    12     5     6   ar
    13     6     7   ar
    14     7     8   ar
    15     8     1    1
    16     1     2    2
    17     1     3   am
    18     3    28    1
    19    28    39    1
    20    39    40    1
    21    40    41   ar
    22    41    42   ar
    23    42    43   ar
    24    43    44   ar
    25    44    45   ar
    26    45    46   ar
    27    46    47   ar
    28    47    48   ar
    29    28    29    1
    30    29    30    2
    31    29    31   am
    32    31    33    1
    33    33    34   ar
    34    34    35   ar
    35    35    36   ar
    36    36    37   ar
    37    37    38   ar
    38     8     9   ar
    39     9    10    1
    40     9    11   ar
    41    15    16    1
    42    16    17    1
    43    21    22   ar
    44    22    23    1
    45    22    24   ar
    46    24    18   ar
    47    17    12    1
    48    11     5   ar
    49    48    40   ar
    50    38    33   ar
    51    48    43   ar
    52     3     4    1
    53    42    49    1
    54    31    32    1
@<TRIPOS>MOLECULE
*****
 49 54 0 0 0
SMALL
GASTEIGER

@<TRIPOS>ATOM
      1 C           9.1944   75.9545   26.5384 C.2     1  UNL1        0.2483
      2 O           9.6133   75.2881   27.5245 O.2     1  UNL1       -0.2701
      3 N           7.9962   75.5459   25.8594 N.am    1  UNL1       -0.2945
      4 H           7.5254   76.2241   25.2184 H       1  UNL1        0.1501
      5 C          11.3689   79.4589   25.3123 C.ar    1  UNL1        0.0502
      6 C          11.9774   78.1945   25.2966 C.ar    1  UNL1        0.0148
      7 C          11.2623   77.0608   25.6908 C.ar    1  UNL1        0.0080
      8 C           9.9291   77.1702   26.1207 C.ar    1  UNL1        0.0808
      9 C           9.3144   78.4379   26.1235 C.ar    1  UNL1        0.1457
     10 F           8.0090   78.5824   26.4650 F       1  UNL1       -0.2040
     11 C          10.0333   79.5697   25.7262 C.ar    1  UNL1        0.0443
     12 N          13.3819   83.0756   24.6918 N.pl3   1  UNL1       -0.3034
     13 C          11.9179   83.0648   24.6468 C.3     1  UNL1        0.1123
     14 C          11.4245   81.7011   24.1652 C.3     1  UNL1        0.1122
     15 N          12.1013   80.6313   24.9090 N.pl3   1  UNL1       -0.3040
     16 C          13.5691   80.6411   24.9424 C.3     1  UNL1        0.1122
     17 C          14.0747   82.0059   25.4140 C.3     1  UNL1        0.1123
     18 C          15.4882   86.6125   23.6338 C.ar    1  UNL1       -0.0216
     19 C          15.1484   85.6544   22.6606 C.ar    1  UNL1       -0.0030
     20 C          14.4562   84.4957   23.0192 C.ar    1  UNL1        0.0151
     21 C          14.0916   84.2731   24.3511 C.ar    1  UNL1        0.0586
     22 C          14.4263   85.2226   25.3323 C.ar    1  UNL1        0.0706
     23 CL         13.9906   84.9798   27.0183 Cl      1  UNL1       -0.0810
     24 C          15.1200   86.3835   24.9713 C.ar    1  UNL1        0.0084
     25 C          16.4535   87.9637   21.7437 C.3     1  UNL1        0.0047
     26 C          16.2400   87.8762   23.2596 C.3     1  UNL1        0.0224
     27 C          17.5732   87.9690   24.0110 C.3     1  UNL1        0.0047
     28 C           7.3111   74.2911   26.1827 C.3     1  UNL1        0.1535
     29 C           6.4187   74.4882   27.3816 C.2     1  UNL1        0.2443
     30 O           6.0730   73.4879   28.0678 O.2     1  UNL1       -0.2730
     31 N           6.0660   75.8185   27.7967 N.am    1  UNL1       -0.2825
     32 H           6.4906   76.6175   27.2734 H       1  UNL1        0.1549
     33 C           5.3955   76.1168   29.0315 C.ar    1  UNL1        0.0535
     34 C           4.1028   76.6646   29.0518 C.ar    1  UNL1        0.0353
     35 C           3.4928   76.9417   30.2780 C.ar    1  UNL1        0.1002
     36 N           4.1525   76.6935   31.4404 N.ar    1  UNL1       -0.2422
     37 C           5.4114   76.1810   31.4491 C.ar    1  UNL1        0.1002
     38 C           6.0588   75.8939   30.2455 C.ar    1  UNL1        0.0353
     39 C           6.4943   73.8059   24.9698 C.3     1  UNL1        0.0569
     40 C           6.1742   74.9343   24.0294 C.ar    1  UNL1       -0.0017
     41 C           5.0541   75.7585   24.0837 C.ar    1  UNL1        0.0681
     42 N           5.1541   76.7530   23.1726 N.ar    1  UNL1       -0.3523
     43 C           6.3336   76.5732   22.5533 C.ar    1  UNL1        0.0563
     44 C           6.9009   77.3797   21.5676 C.ar    1  UNL1        0.0170
     45 C           8.1770   77.0329   21.0878 C.ar    1  UNL1        0.0015
     46 C           8.8510   75.9023   21.5998 C.ar    1  UNL1        0.0001
     47 C           8.2549   75.1073   22.5951 C.ar    1  UNL1        0.0012
     48 C           6.9869   75.4739   23.0492 C.ar    1  UNL1        0.0131
     49 H           4.4661   77.5212   23.0082 H       1  UNL1        0.1660
@<TRIPOS>BOND
     1    25    26    1
     2    26    27    1
     3    26    18    1
     4    18    19   ar
     5    19    20   ar
     6    20    21   ar
     7    21    12    1
     8    12    13    1
     9    13    14    1
    10    14    15    1
    11    15     5    1
    12     5     6   ar
    13     6     7   ar
    14     7     8   ar
    15     8     1    1
    16     1     2    2
    17     1     3   am
    18     3    28    1
    19    28    39    1
    20    39    40    1
    21    40    41   ar
    22    41    42   ar
    23    42    43   ar
    24    43    44   ar
    25    44    45   ar
    26    45    46   ar
    27    46    47   ar
    28    47    48   ar
    29    28    29    1
    30    29    30    2
    31    29    31   am
    32    31    33    1
    33    33    34   ar
    34    34    35   ar
    35    35    36   ar
    36    36    37   ar
    37    37    38   ar
    38     8     9   ar
    39     9    10    1
    40     9    11   ar
    41    15    16    1
    42    16    17    1
    43    21    22   ar
    44    22    23    1
    45    22    24   ar
    46    24    18   ar
    47    17    12    1
    48    11     5   ar
    49    48    40   ar
    50    38    33   ar
    51    48    43   ar
    52     3     4    1
    53    42    49    1
    54    31    32    1
