@<TRIPOS>MOLECULE
*****
 39 43 0 0 0
SMALL
GASTEIGER

@<TRIPOS>ATOM
      1 C         -10.3846  -12.7722   31.1628 C.3     1  UNL1        0.1333
      2 N         -10.1224  -11.6911   32.1126 N.ar    1  UNL1       -0.2950
      3 C         -10.8931  -11.2826   33.1568 C.ar    1  UNL1        0.2019
      4 N         -10.3551  -10.2518   33.8606 N.ar    1  UNL1       -0.2134
      5 C          -9.1941  -10.0253   33.2209 C.ar    1  UNL1        0.1033
      6 C          -8.2411   -9.0569   33.5265 C.ar    1  UNL1        0.0284
      7 C          -7.0785   -8.9824   32.7259 C.ar    1  UNL1        0.0922
      8 C          -6.8947   -9.9229   31.6741 C.ar    1  UNL1        0.1782
      9 C          -7.8989  -10.8662   31.3730 C.ar    1  UNL1        0.1897
     10 C          -9.0410  -10.8922   32.1773 C.ar    1  UNL1        0.1173
     11 O          -7.7174  -11.7396   30.2969 O.3     1  UNL1       -0.4669
     12 C          -6.6833  -11.5156   29.3370 C.3     1  UNL1        0.2527
     13 C          -5.4099  -11.0311   30.0391 C.3     1  UNL1        0.2526
     14 O          -5.7133   -9.9486   30.9217 O.3     1  UNL1       -0.4682
     15 C          -6.0683   -7.9355   33.0081 C.2     1  UNL1        0.2526
     16 O          -5.3103   -8.0672   34.0063 O.2     1  UNL1       -0.2697
     17 N          -5.9104   -6.7830   32.1645 N.am    1  UNL1       -0.2803
     18 H          -4.9578   -6.3582   32.0990 H       1  UNL1        0.1552
     19 C          -6.9805   -6.1675   31.4259 C.ar    1  UNL1        0.0506
     20 C          -6.7607   -5.0270   30.6359 C.ar    1  UNL1        0.0170
     21 C          -7.8209   -4.4291   29.9538 C.ar    1  UNL1        0.0309
     22 C          -9.1067   -4.9684   30.0383 C.ar    1  UNL1        0.1441
     23 F         -10.1233   -4.3577   29.3778 F       1  UNL1       -0.2042
     24 C          -9.3414   -6.1299   30.7973 C.ar    1  UNL1        0.1000
     25 C          -8.2673   -6.7226   31.4880 C.ar    1  UNL1        0.0208
     26 C         -10.7392   -6.6929   30.8936 C.3     1  UNL1        0.4207
     27 F         -11.5596   -5.7750   31.5234 F       1  UNL1       -0.1658
     28 F         -10.7667   -7.8766   31.6110 F       1  UNL1       -0.1658
     29 F         -11.2303   -6.9421   29.6246 F       1  UNL1       -0.1658
     30 N         -12.1331  -11.9056   33.5243 N.pl3   1  UNL1       -0.2814
     31 H         -12.9609  -11.2992   33.7154 H       1  UNL1        0.1551
     32 C         -12.3590  -13.3117   33.3490 C.ar    1  UNL1        0.0889
     33 C         -13.3324  -13.7428   32.4322 C.ar    1  UNL1        0.1543
     34 F         -14.0376  -12.8383   31.7073 F       1  UNL1       -0.2028
     35 C         -13.5676  -15.1076   32.2426 C.ar    1  UNL1        0.0310
     36 C         -12.8450  -16.0515   32.9748 C.ar    1  UNL1        0.0033
     37 C         -11.8927  -15.6338   33.9072 C.ar    1  UNL1        0.0128
     38 C         -11.6485  -14.2693   34.1052 C.ar    1  UNL1        0.0733
     39 CL        -10.5071  -13.7955   35.3583 Cl      1  UNL1       -0.0809
@<TRIPOS>BOND
     1     1     2    1
     2     2     3   ar
     3     3    30    1
     4    30    32    1
     5    32    33   ar
     6    33    34    1
     7    33    35   ar
     8    35    36   ar
     9    36    37   ar
    10    37    38   ar
    11    38    39    1
    12     3     4   ar
    13     4     5   ar
    14     5     6   ar
    15     6     7   ar
    16     7    15    1
    17    15    16    2
    18    15    17   am
    19    17    19    1
    20    19    20   ar
    21    20    21   ar
    22    21    22   ar
    23    22    23    1
    24    22    24   ar
    25    24    26    1
    26    26    27    1
    27    26    28    1
    28    26    29    1
    29    24    25   ar
    30     7     8   ar
    31     8     9   ar
    32     9    10   ar
    33     9    11    1
    34    11    12    1
    35    12    13    1
    36    13    14    1
    37    10     2   ar
    38    38    32   ar
    39    10     5   ar
    40    25    19   ar
    41    14     8    1
    42    30    31    1
    43    17    18    1
@<TRIPOS>MOLECULE
*****
 39 43 0 0 0
SMALL
GASTEIGER

@<TRIPOS>ATOM
      1 C          -9.3020  -12.9913   29.3118 C.3     1  UNL1        0.1333
      2 N          -9.4787  -12.0928   30.4524 N.ar    1  UNL1       -0.2950
      3 C         -10.5267  -12.0268   31.3175 C.ar    1  UNL1        0.2019
      4 N         -10.3759  -11.0844   32.2853 N.ar    1  UNL1       -0.2134
      5 C          -9.1723  -10.5548   32.0034 C.ar    1  UNL1        0.1033
      6 C          -8.5251   -9.5281   32.6863 C.ar    1  UNL1        0.0284
      7 C          -7.2540   -9.1133   32.2277 C.ar    1  UNL1        0.0922
      8 C          -6.6574   -9.7851   31.1244 C.ar    1  UNL1        0.1782
      9 C          -7.3596  -10.7965   30.4368 C.ar    1  UNL1        0.1897
     10 C          -8.6216  -11.1619   30.9115 C.ar    1  UNL1        0.1173
     11 O          -6.7732  -11.3990   29.3200 O.3     1  UNL1       -0.4669
     12 C          -5.6198  -10.8282   28.6998 C.3     1  UNL1        0.2527
     13 C          -4.6567  -10.2977   29.7677 C.3     1  UNL1        0.2526
     14 O          -5.3588   -9.4738   30.7010 O.3     1  UNL1       -0.4682
     15 C          -6.5628   -7.9970   32.9149 C.2     1  UNL1        0.2526
     16 O          -5.9690   -8.2202   34.0038 O.2     1  UNL1       -0.2697
     17 N          -6.5293   -6.6694   32.3660 N.am    1  UNL1       -0.2803
     18 H          -5.6977   -6.0758   32.5860 H       1  UNL1        0.1552
     19 C          -7.5734   -6.1018   31.5554 C.ar    1  UNL1        0.0506
     20 C          -7.3079   -5.0688   30.6412 C.ar    1  UNL1        0.0170
     21 C          -8.3429   -4.5126   29.8887 C.ar    1  UNL1        0.0309
     22 C          -9.6490   -4.9884   30.0268 C.ar    1  UNL1        0.1441
     23 F         -10.6399   -4.4186   29.2947 F       1  UNL1       -0.2042
     24 C          -9.9301   -6.0452   30.9126 C.ar    1  UNL1        0.1000
     25 C          -8.8809   -6.5958   31.6731 C.ar    1  UNL1        0.0208
     26 C         -11.3489   -6.5388   31.0646 C.3     1  UNL1        0.4207
     27 F         -11.3383   -7.7820   31.6701 F       1  UNL1       -0.1658
     28 F         -11.9876   -6.6478   29.8412 F       1  UNL1       -0.1658
     29 F         -12.0673   -5.6581   31.8533 F       1  UNL1       -0.1658
     30 N         -11.6658  -12.8984   31.2582 N.pl3   1  UNL1       -0.2814
     31 H         -12.0505  -13.1569   30.3229 H       1  UNL1        0.1551
     32 C         -12.1032  -13.6568   32.3950 C.ar    1  UNL1        0.0889
     33 C         -12.0316  -15.0592   32.3552 C.ar    1  UNL1        0.1543
     34 F         -11.5364  -15.6880   31.2595 F       1  UNL1       -0.2028
     35 C         -12.4492  -15.8185   33.4520 C.ar    1  UNL1        0.0310
     36 C         -12.9539  -15.1867   34.5901 C.ar    1  UNL1        0.0033
     37 C         -13.0531  -13.7941   34.6311 C.ar    1  UNL1        0.0128
     38 C         -12.6375  -13.0235   33.5384 C.ar    1  UNL1        0.0733
     39 CL        -12.8720  -11.2805   33.6047 Cl      1  UNL1       -0.0809
@<TRIPOS>BOND
     1     1     2    1
     2     2     3   ar
     3     3    30    1
     4    30    32    1
     5    32    33   ar
     6    33    34    1
     7    33    35   ar
     8    35    36   ar
     9    36    37   ar
    10    37    38   ar
    11    38    39    1
    12     3     4   ar
    13     4     5   ar
    14     5     6   ar
    15     6     7   ar
    16     7    15    1
    17    15    16    2
    18    15    17   am
    19    17    19    1
    20    19    20   ar
    21    20    21   ar
    22    21    22   ar
    23    22    23    1
    24    22    24   ar
    25    24    26    1
    26    26    27    1
    27    26    28    1
    28    26    29    1
    29    24    25   ar
    30     7     8   ar
    31     8     9   ar
    32     9    10   ar
    33     9    11    1
    34    11    12    1
    35    12    13    1
    36    13    14    1
    37    10     2   ar
    38    38    32   ar
    39    10     5   ar
    40    25    19   ar
    41    14     8    1
    42    30    31    1
    43    17    18    1
@<TRIPOS>MOLECULE
*****
 39 43 0 0 0
SMALL
GASTEIGER

@<TRIPOS>ATOM
      1 C          -9.8879  -12.6522   32.2479 C.3     1  UNL1        0.1333
      2 N         -10.6723  -11.4214   32.3445 N.ar    1  UNL1       -0.2950
      3 C         -11.7774  -11.1847   33.1021 C.ar    1  UNL1        0.2019
      4 N         -12.2647   -9.9222   32.9754 N.ar    1  UNL1       -0.2134
      5 C         -11.4099   -9.3566   32.1048 C.ar    1  UNL1        0.1033
      6 C         -11.4508   -8.0546   31.6124 C.ar    1  UNL1        0.0284
      7 C         -10.4508   -7.6504   30.6986 C.ar    1  UNL1        0.0922
      8 C          -9.4135   -8.5606   30.3524 C.ar    1  UNL1        0.1782
      9 C          -9.4264   -9.8821   30.8445 C.ar    1  UNL1        0.1897
     10 C         -10.4443  -10.2459   31.7296 C.ar    1  UNL1        0.1173
     11 O          -8.4272  -10.7727   30.4413 O.3     1  UNL1       -0.4669
     12 C          -7.5700  -10.4637   29.3410 C.3     1  UNL1        0.2527
     13 C          -7.1828   -8.9811   29.3761 C.3     1  UNL1        0.2526
     14 O          -8.3489   -8.1691   29.5302 O.3     1  UNL1       -0.4682
     15 C         -10.4957   -6.2819   30.1317 C.2     1  UNL1        0.2526
     16 O         -11.4577   -5.9581   29.3848 O.2     1  UNL1       -0.2697
     17 N          -9.4859   -5.3027   30.4259 N.am    1  UNL1       -0.2803
     18 H          -9.7720   -4.2975   30.4256 H       1  UNL1        0.1552
     19 C          -8.1085   -5.6165   30.6973 C.ar    1  UNL1        0.0506
     20 C          -7.0671   -5.0320   29.9576 C.ar    1  UNL1        0.0170
     21 C          -5.7403   -5.3761   30.2183 C.ar    1  UNL1        0.0309
     22 C          -5.4353   -6.2931   31.2270 C.ar    1  UNL1        0.1441
     23 F          -4.1373   -6.6225   31.4490 F       1  UNL1       -0.2042
     24 C          -6.4618   -6.8645   32.0016 C.ar    1  UNL1        0.1000
     25 C          -7.7982   -6.5170   31.7271 C.ar    1  UNL1        0.0208
     26 C          -6.1195   -7.8670   33.0777 C.3     1  UNL1        0.4207
     27 F          -7.2556   -8.1566   33.8110 F       1  UNL1       -0.1658
     28 F          -5.1485   -7.3841   33.9381 F       1  UNL1       -0.1658
     29 F          -5.6470   -9.0307   32.4979 F       1  UNL1       -0.1658
     30 N         -12.3538  -12.1499   33.9948 N.pl3   1  UNL1       -0.2814
     31 H         -12.7474  -11.8193   34.9033 H       1  UNL1        0.1551
     32 C         -12.6786  -13.4810   33.5690 C.ar    1  UNL1        0.0889
     33 C         -12.2982  -14.5712   34.3692 C.ar    1  UNL1        0.1543
     34 F         -11.6468  -14.3649   35.5415 F       1  UNL1       -0.2028
     35 C         -12.6065  -15.8767   33.9759 C.ar    1  UNL1        0.0310
     36 C         -13.2832  -16.1057   32.7764 C.ar    1  UNL1        0.0033
     37 C         -13.6441  -15.0310   31.9607 C.ar    1  UNL1        0.0128
     38 C         -13.3407  -13.7191   32.3447 C.ar    1  UNL1        0.0733
     39 CL        -13.7331  -12.4095   31.2364 Cl      1  UNL1       -0.0809
@<TRIPOS>BOND
     1     1     2    1
     2     2     3   ar
     3     3    30    1
     4    30    32    1
     5    32    33   ar
     6    33    34    1
     7    33    35   ar
     8    35    36   ar
     9    36    37   ar
    10    37    38   ar
    11    38    39    1
    12     3     4   ar
    13     4     5   ar
    14     5     6   ar
    15     6     7   ar
    16     7    15    1
    17    15    16    2
    18    15    17   am
    19    17    19    1
    20    19    20   ar
    21    20    21   ar
    22    21    22   ar
    23    22    23    1
    24    22    24   ar
    25    24    26    1
    26    26    27    1
    27    26    28    1
    28    26    29    1
    29    24    25   ar
    30     7     8   ar
    31     8     9   ar
    32     9    10   ar
    33     9    11    1
    34    11    12    1
    35    12    13    1
    36    13    14    1
    37    10     2   ar
    38    38    32   ar
    39    10     5   ar
    40    25    19   ar
    41    14     8    1
    42    30    31    1
    43    17    18    1
@<TRIPOS>MOLECULE
*****
 39 43 0 0 0
SMALL
GASTEIGER

@<TRIPOS>ATOM
      1 C          -5.6607  -11.6273   29.0691 C.3     1  UNL1        0.1333
      2 N          -7.0425  -12.0959   29.1724 N.ar    1  UNL1       -0.2950
      3 C          -7.5578  -13.2914   28.7769 C.ar    1  UNL1        0.2019
      4 N          -8.8870  -13.4220   29.0290 N.ar    1  UNL1       -0.2134
      5 C          -9.1974  -12.2526   29.6159 C.ar    1  UNL1        0.1033
      6 C         -10.4486  -11.8487   30.0752 C.ar    1  UNL1        0.0284
      7 C         -10.5661  -10.5708   30.6680 C.ar    1  UNL1        0.0922
      8 C          -9.4042   -9.7643   30.8225 C.ar    1  UNL1        0.1782
      9 C          -8.1614  -10.1934   30.3126 C.ar    1  UNL1        0.1897
     10 C          -8.0938  -11.4550   29.7164 C.ar    1  UNL1        0.1173
     11 O          -7.0485   -9.3552   30.4262 O.3     1  UNL1       -0.4669
     12 C          -7.1991   -7.9811   30.7868 C.3     1  UNL1        0.2527
     13 C          -8.2700   -7.8370   31.8738 C.3     1  UNL1        0.2526
     14 O          -9.4575   -8.5358   31.4937 O.3     1  UNL1       -0.4682
     15 C         -11.8947  -10.1039   31.1294 C.2     1  UNL1        0.2526
     16 O         -12.2092   -8.8939   30.9708 O.2     1  UNL1       -0.2697
     17 N         -12.8471  -10.9947   31.7332 N.am    1  UNL1       -0.2803
     18 H         -13.8614  -10.7788   31.6034 H       1  UNL1        0.1552
     19 C         -12.4932  -12.1462   32.5194 C.ar    1  UNL1        0.0506
     20 C         -11.5722  -12.0538   33.5760 C.ar    1  UNL1        0.0170
     21 C         -11.2208  -13.1910   34.3041 C.ar    1  UNL1        0.0309
     22 C         -11.7933  -14.4281   33.9984 C.ar    1  UNL1        0.1441
     23 F         -11.4217  -15.5216   34.7118 F       1  UNL1       -0.2042
     24 C         -12.7430  -14.5356   32.9656 C.ar    1  UNL1        0.1000
     25 C         -13.0864  -13.3843   32.2315 C.ar    1  UNL1        0.0208
     26 C         -13.3417  -15.8817   32.6346 C.3     1  UNL1        0.4207
     27 F         -14.3421  -16.1733   33.5436 F       1  UNL1       -0.1658
     28 F         -12.3939  -16.8897   32.6810 F       1  UNL1       -0.1658
     29 F         -13.8823  -15.8515   31.3616 F       1  UNL1       -0.1658
     30 N          -6.7741  -14.3444   28.1957 N.pl3   1  UNL1       -0.2814
     31 H          -5.9901  -14.7509   28.7523 H       1  UNL1        0.1551
     32 C          -7.2038  -15.0552   27.0257 C.ar    1  UNL1        0.0889
     33 C          -8.3486  -15.8665   27.0956 C.ar    1  UNL1        0.1543
     34 F          -9.0503  -15.9612   28.2531 F       1  UNL1       -0.2028
     35 C          -8.7877  -16.5659   25.9678 C.ar    1  UNL1        0.0310
     36 C          -8.0815  -16.4731   24.7670 C.ar    1  UNL1        0.0033
     37 C          -6.9277  -15.6895   24.6928 C.ar    1  UNL1        0.0128
     38 C          -6.4789  -14.9843   25.8161 C.ar    1  UNL1        0.0733
     39 CL         -4.9688  -14.0885   25.6948 Cl      1  UNL1       -0.0809
@<TRIPOS>BOND
     1     1     2    1
     2     2     3   ar
     3     3    30    1
     4    30    32    1
     5    32    33   ar
     6    33    34    1
     7    33    35   ar
     8    35    36   ar
     9    36    37   ar
    10    37    38   ar
    11    38    39    1
    12     3     4   ar
    13     4     5   ar
    14     5     6   ar
    15     6     7   ar
    16     7    15    1
    17    15    16    2
    18    15    17   am
    19    17    19    1
    20    19    20   ar
    21    20    21   ar
    22    21    22   ar
    23    22    23    1
    24    22    24   ar
    25    24    26    1
    26    26    27    1
    27    26    28    1
    28    26    29    1
    29    24    25   ar
    30     7     8   ar
    31     8     9   ar
    32     9    10   ar
    33     9    11    1
    34    11    12    1
    35    12    13    1
    36    13    14    1
    37    10     2   ar
    38    38    32   ar
    39    10     5   ar
    40    25    19   ar
    41    14     8    1
    42    30    31    1
    43    17    18    1
@<TRIPOS>MOLECULE
*****
 39 43 0 0 0
SMALL
GASTEIGER

@<TRIPOS>ATOM
      1 C         -13.1318  -11.4417   32.2750 C.3     1  UNL1        0.1333
      2 N         -11.8642  -11.2511   31.5703 N.ar    1  UNL1       -0.2950
      3 C         -10.9887  -12.2000   31.1412 C.ar    1  UNL1        0.2019
      4 N          -9.9029  -11.6903   30.5019 N.ar    1  UNL1       -0.2134
      5 C         -10.1306  -10.3654   30.5336 C.ar    1  UNL1        0.1033
      6 C          -9.3155   -9.3600   30.0193 C.ar    1  UNL1        0.0284
      7 C          -9.7380   -8.0178   30.1548 C.ar    1  UNL1        0.0922
      8 C         -10.9950   -7.7402   30.7608 C.ar    1  UNL1        0.1782
      9 C         -11.7756   -8.7830   31.3011 C.ar    1  UNL1        0.1897
     10 C         -11.3112  -10.0934   31.1630 C.ar    1  UNL1        0.1173
     11 O         -12.9787   -8.4758   31.9431 O.3     1  UNL1       -0.4669
     12 C         -13.2926   -7.1306   32.3077 C.3     1  UNL1        0.2527
     13 C         -12.8507   -6.1686   31.1993 C.3     1  UNL1        0.2526
     14 O         -11.4971   -6.4340   30.8250 O.3     1  UNL1       -0.4682
     15 C          -8.8692   -6.9287   29.6495 C.2     1  UNL1        0.2526
     16 O          -9.3660   -6.0442   28.9018 O.2     1  UNL1       -0.2697
     17 N          -7.4798   -6.8366   30.0044 N.am    1  UNL1       -0.2803
     18 H          -7.0529   -5.8835   30.0447 H       1  UNL1        0.1552
     19 C          -6.6389   -7.9697   30.2845 C.ar    1  UNL1        0.0506
     20 C          -6.5177   -8.4850   31.5857 C.ar    1  UNL1        0.0170
     21 C          -5.6714   -9.5650   31.8383 C.ar    1  UNL1        0.0309
     22 C          -4.9492  -10.1529   30.7971 C.ar    1  UNL1        0.1441
     23 F          -4.1205  -11.1920   31.0730 F       1  UNL1       -0.2042
     24 C          -5.0822   -9.6730   29.4809 C.ar    1  UNL1        0.1000
     25 C          -5.9330   -8.5782   29.2362 C.ar    1  UNL1        0.0208
     26 C          -4.2831  -10.3067   28.3674 C.3     1  UNL1        0.4207
     27 F          -4.9130  -11.4668   27.9554 F       1  UNL1       -0.1658
     28 F          -2.9977  -10.6212   28.7737 F       1  UNL1       -0.1658
     29 F          -4.1996   -9.4334   27.2977 F       1  UNL1       -0.1658
     30 N         -11.2036  -13.6110   31.2949 N.pl3   1  UNL1       -0.2814
     31 H         -10.7773  -14.2613   30.5984 H       1  UNL1        0.1551
     32 C         -11.7157  -14.1743   32.5111 C.ar    1  UNL1        0.0889
     33 C         -12.7733  -15.0970   32.4499 C.ar    1  UNL1        0.1543
     34 F         -13.2916  -15.4649   31.2510 F       1  UNL1       -0.2028
     35 C         -13.2863  -15.6610   33.6215 C.ar    1  UNL1        0.0310
     36 C         -12.7590  -15.2991   34.8625 C.ar    1  UNL1        0.0033
     37 C         -11.7244  -14.3638   34.9370 C.ar    1  UNL1        0.0128
     38 C         -11.2025  -13.7927   33.7700 C.ar    1  UNL1        0.0733
     39 CL         -9.9657  -12.5504   33.9257 Cl      1  UNL1       -0.0809
@<TRIPOS>BOND
     1     1     2    1
     2     2     3   ar
     3     3    30    1
     4    30    32    1
     5    32    33   ar
     6    33    34    1
     7    33    35   ar
     8    35    36   ar
     9    36    37   ar
    10    37    38   ar
    11    38    39    1
    12     3     4   ar
    13     4     5   ar
    14     5     6   ar
    15     6     7   ar
    16     7    15    1
    17    15    16    2
    18    15    17   am
    19    17    19    1
    20    19    20   ar
    21    20    21   ar
    22    21    22   ar
    23    22    23    1
    24    22    24   ar
    25    24    26    1
    26    26    27    1
    27    26    28    1
    28    26    29    1
    29    24    25   ar
    30     7     8   ar
    31     8     9   ar
    32     9    10   ar
    33     9    11    1
    34    11    12    1
    35    12    13    1
    36    13    14    1
    37    10     2   ar
    38    38    32   ar
    39    10     5   ar
    40    25    19   ar
    41    14     8    1
    42    30    31    1
    43    17    18    1
@<TRIPOS>MOLECULE
*****
 39 43 0 0 0
SMALL
GASTEIGER

@<TRIPOS>ATOM
      1 C         -12.4784  -11.2155   32.8549 C.3     1  UNL1        0.1333
      2 N         -11.0521  -10.9824   33.0812 N.ar    1  UNL1       -0.2950
      3 C         -10.1544  -11.7952   33.7013 C.ar    1  UNL1        0.2019
      4 N          -8.8935  -11.2889   33.7348 N.ar    1  UNL1       -0.2134
      5 C          -9.0251  -10.1132   33.0954 C.ar    1  UNL1        0.1033
      6 C          -8.0275   -9.1723   32.8524 C.ar    1  UNL1        0.0284
      7 C          -8.3732   -7.9912   32.1569 C.ar    1  UNL1        0.0922
      8 C          -9.7053   -7.8239   31.6859 C.ar    1  UNL1        0.1782
      9 C         -10.6958   -8.7829   31.9827 C.ar    1  UNL1        0.1897
     10 C         -10.3152   -9.9262   32.6896 C.ar    1  UNL1        0.1173
     11 O         -12.0095   -8.5645   31.5578 O.3     1  UNL1       -0.4669
     12 C         -12.4233   -7.2817   31.0843 C.3     1  UNL1        0.2527
     13 C         -11.3197   -6.6579   30.2230 C.3     1  UNL1        0.2526
     14 O         -10.0660   -6.7169   30.9068 O.3     1  UNL1       -0.4682
     15 C          -7.3371   -6.9584   31.9202 C.2     1  UNL1        0.2526
     16 O          -7.5797   -5.7623   32.2345 O.2     1  UNL1       -0.2697
     17 N          -6.0528   -7.2823   31.3630 N.am    1  UNL1       -0.2803
     18 H          -5.2397   -6.6889   31.6444 H       1  UNL1        0.1552
     19 C          -5.8217   -8.3525   30.4300 C.ar    1  UNL1        0.0506
     20 C          -4.8248   -8.2596   29.4447 C.ar    1  UNL1        0.0170
     21 C          -4.6404   -9.2976   28.5307 C.ar    1  UNL1        0.0309
     22 C          -5.4353  -10.4444   28.5972 C.ar    1  UNL1        0.1441
     23 F          -5.2460  -11.4323   27.6857 F       1  UNL1       -0.2042
     24 C          -6.4169  -10.5713   29.5975 C.ar    1  UNL1        0.1000
     25 C          -6.6009   -9.5161   30.5112 C.ar    1  UNL1        0.0208
     26 C          -7.2804  -11.8090   29.6478 C.3     1  UNL1        0.4207
     27 F          -7.4393  -12.2027   30.9639 F       1  UNL1       -0.1658
     28 F          -6.7181  -12.8557   28.9375 F       1  UNL1       -0.1658
     29 F          -8.5228  -11.5333   29.1055 F       1  UNL1       -0.1658
     30 N         -10.4818  -13.0898   34.2280 N.pl3   1  UNL1       -0.2814
     31 H         -10.1387  -13.3445   35.1804 H       1  UNL1        0.1551
     32 C         -11.4947  -13.9171   33.6377 C.ar    1  UNL1        0.0889
     33 C         -12.3657  -14.6384   34.4712 C.ar    1  UNL1        0.1543
     34 F         -12.2608  -14.5383   35.8203 F       1  UNL1       -0.2028
     35 C         -13.3620  -15.4482   33.9185 C.ar    1  UNL1        0.0310
     36 C         -13.4884  -15.5561   32.5323 C.ar    1  UNL1        0.0033
     37 C         -12.6119  -14.8633   31.6940 C.ar    1  UNL1        0.0128
     38 C         -11.6105  -14.0489   32.2366 C.ar    1  UNL1        0.0733
     39 CL        -10.4744  -13.2737   31.1385 Cl      1  UNL1       -0.0809
@<TRIPOS>BOND
     1     1     2    1
     2     2     3   ar
     3     3    30    1
     4    30    32    1
     5    32    33   ar
     6    33    34    1
     7    33    35   ar
     8    35    36   ar
     9    36    37   ar
    10    37    38   ar
    11    38    39    1
    12     3     4   ar
    13     4     5   ar
    14     5     6   ar
    15     6     7   ar
    16     7    15    1
    17    15    16    2
    18    15    17   am
    19    17    19    1
    20    19    20   ar
    21    20    21   ar
    22    21    22   ar
    23    22    23    1
    24    22    24   ar
    25    24    26    1
    26    26    27    1
    27    26    28    1
    28    26    29    1
    29    24    25   ar
    30     7     8   ar
    31     8     9   ar
    32     9    10   ar
    33     9    11    1
    34    11    12    1
    35    12    13    1
    36    13    14    1
    37    10     2   ar
    38    38    32   ar
    39    10     5   ar
    40    25    19   ar
    41    14     8    1
    42    30    31    1
    43    17    18    1
