@<TRIPOS>MOLECULE
*****
 45 50 0 0 0
SMALL
GASTEIGER

@<TRIPOS>ATOM
      1 C         -64.7493  -41.7420  -23.5001 C.ar    1  UNL1        0.0702
      2 C         -64.1932  -42.7645  -22.7235 C.ar    1  UNL1        0.0191
      3 C         -64.4932  -42.8595  -21.3639 C.ar    1  UNL1        0.0356
      4 C         -65.3456  -41.9108  -20.7709 C.ar    1  UNL1        0.1317
      5 N         -65.8510  -40.9087  -21.5441 N.ar    1  UNL1       -0.2279
      6 C         -65.5756  -40.7986  -22.8703 C.ar    1  UNL1        0.1149
      7 N         -65.6919  -41.9810  -19.3673 N.pl3   1  UNL1       -0.2949
      8 C         -66.8844  -41.2673  -18.8725 C.3     1  UNL1        0.0922
      9 C         -66.8543  -41.0567  -17.3521 C.3     1  UNL1        0.0252
     10 C         -65.4213  -40.8850  -16.8282 C.3     1  UNL1        0.0471
     11 C         -64.5954  -42.1612  -17.1064 C.3     1  UNL1        0.0235
     12 C         -64.9137  -42.8524  -18.4625 C.3     1  UNL1        0.0743
     13 C         -65.6541  -44.1816  -18.2696 C.3     1  UNL1        0.0215
     14 C         -64.7491  -39.6213  -17.4006 C.3     1  UNL1        0.2054
     15 O         -63.4093  -39.9197  -17.7878 O.3     1  UNL1       -0.4755
     16 C         -62.9493  -39.9276  -19.1129 C.ar    1  UNL1        0.1388
     17 C         -63.3276  -38.9467  -20.0478 C.ar    1  UNL1        0.0369
     18 C         -62.8343  -38.9945  -21.3526 C.ar    1  UNL1        0.0033
     19 C         -61.9672  -40.0181  -21.7397 C.ar    1  UNL1        0.0066
     20 C         -61.5873  -41.0153  -20.8242 C.ar    1  UNL1        0.0785
     21 C         -62.0802  -40.9528  -19.5074 C.ar    1  UNL1        0.0433
     22 C         -60.6637  -42.0960  -21.2479 C.2     1  UNL1        0.3381
     23 O         -60.0748  -42.7914  -20.3778 O.2     1  UNL1       -0.2451
     24 O         -60.4103  -42.3608  -22.5934 O.3     1  UNL1       -0.4771
     25 H         -60.7648  -41.7779  -23.3403 H       1  UNL1        0.2954
     26 C         -63.1469  -42.0370  -25.4466 C.2     1  UNL1        0.2839
     27 O         -62.1647  -42.2555  -24.6874 O.2     1  UNL1       -0.2665
     28 N         -64.4143  -41.6447  -24.8951 N.am    1  UNL1       -0.2766
     29 H         -65.1036  -41.1822  -25.5305 H       1  UNL1        0.1553
     30 C         -60.7531  -43.4753  -27.0196 C.3     1  UNL1        0.0345
     31 C         -61.9431  -42.7719  -27.5998 C.ar    1  UNL1        0.0202
     32 C         -62.9859  -42.1442  -26.9091 C.ar    1  UNL1        0.1946
     33 O         -63.8543  -41.6366  -27.7658 O.2     1  UNL1       -0.4492
     34 C         -63.4282  -41.9020  -28.9764 C.ar    1  UNL1        0.1452
     35 C         -64.0339  -41.5557  -30.1791 C.ar    1  UNL1        0.0375
     36 C         -63.4022  -41.9454  -31.3727 C.ar    1  UNL1        0.0031
     37 C         -62.1808  -42.6715  -31.3472 C.ar    1  UNL1        0.0002
     38 C         -61.5971  -43.0037  -30.1010 C.ar    1  UNL1        0.0028
     39 C         -62.2514  -42.6006  -28.9358 C.ar    1  UNL1        0.0337
     40 C         -61.5227  -43.0780  -32.6147 C.ar    1  UNL1        0.0000
     41 C         -62.2438  -43.0903  -33.8239 C.ar    1  UNL1        0.0000
     42 C         -61.6217  -43.4746  -35.0157 C.ar    1  UNL1        0.0000
     43 C         -60.2763  -43.8492  -35.0152 C.ar    1  UNL1        0.0000
     44 C         -59.5499  -43.8410  -33.8224 C.ar    1  UNL1        0.0000
     45 C         -60.1671  -43.4586  -32.6274 C.ar    1  UNL1        0.0000
@<TRIPOS>BOND
     1    30    31    1
     2    31    32   ar
     3    32    26    1
     4    26    27    2
     5    26    28   am
     6    28     1    1
     7     1     2   ar
     8     2     3   ar
     9     3     4   ar
    10     4     7    1
    11     7     8    1
    12     8     9    1
    13     9    10    1
    14    10    14    1
    15    14    15    1
    16    15    16    1
    17    16    17   ar
    18    17    18   ar
    19    18    19   ar
    20    19    20   ar
    21    20    22    1
    22    22    23    2
    23    22    24    1
    24    20    21   ar
    25    10    11    1
    26    11    12    1
    27    12    13    1
    28     4     5   ar
    29     5     6   ar
    30    32    33   ar
    31    33    34   ar
    32    34    35   ar
    33    35    36   ar
    34    36    37   ar
    35    37    40    1
    36    40    41   ar
    37    41    42   ar
    38    42    43   ar
    39    43    44   ar
    40    44    45   ar
    41    37    38   ar
    42    38    39   ar
    43    39    31   ar
    44     6     1   ar
    45    39    34   ar
    46    12     7    1
    47    45    40   ar
    48    21    16   ar
    49    28    29    1
    50    24    25    1
@<TRIPOS>MOLECULE
*****
 45 50 0 0 0
SMALL
GASTEIGER

@<TRIPOS>ATOM
      1 C         -63.0962  -42.6009  -23.2445 C.ar    1  UNL1        0.0702
      2 C         -63.7757  -41.4106  -22.9628 C.ar    1  UNL1        0.0191
      3 C         -64.4200  -41.2401  -21.7366 C.ar    1  UNL1        0.0356
      4 C         -64.3985  -42.2788  -20.7884 C.ar    1  UNL1        0.1317
      5 N         -63.7535  -43.4383  -21.0996 N.ar    1  UNL1       -0.2279
      6 C         -63.1165  -43.6251  -22.2854 C.ar    1  UNL1        0.1149
      7 N         -65.0432  -42.1376  -19.5002 N.pl3   1  UNL1       -0.2949
      8 C         -66.2936  -41.3626  -19.3901 C.3     1  UNL1        0.0922
      9 C         -66.5883  -40.9246  -17.9485 C.3     1  UNL1        0.0252
     10 C         -65.2989  -40.6693  -17.1549 C.3     1  UNL1        0.0471
     11 C         -64.4694  -41.9693  -17.0529 C.3     1  UNL1        0.0235
     12 C         -64.5054  -42.8588  -18.3279 C.3     1  UNL1        0.0743
     13 C         -65.3081  -44.1469  -18.1068 C.3     1  UNL1        0.0215
     14 C         -64.4823  -39.5037  -17.7472 C.3     1  UNL1        0.2054
     15 O         -65.3368  -38.6521  -18.5078 O.3     1  UNL1       -0.4755
     16 C         -65.0200  -37.3371  -18.8791 C.ar    1  UNL1        0.1388
     17 C         -66.0069  -36.3794  -19.1761 C.ar    1  UNL1        0.0369
     18 C         -65.6390  -35.0808  -19.5319 C.ar    1  UNL1        0.0033
     19 C         -64.2904  -34.7256  -19.6005 C.ar    1  UNL1        0.0066
     20 C         -63.2886  -35.6714  -19.3203 C.ar    1  UNL1        0.0785
     21 C         -63.6688  -36.9752  -18.9509 C.ar    1  UNL1        0.0433
     22 C         -61.8597  -35.2803  -19.3948 C.2     1  UNL1        0.3381
     23 O         -61.3586  -34.9526  -20.5033 O.2     1  UNL1       -0.2451
     24 O         -61.0385  -35.2783  -18.2677 O.3     1  UNL1       -0.4771
     25 H         -61.3443  -35.6283  -17.3692 H       1  UNL1        0.2954
     26 C         -61.8702  -44.0034  -24.9689 C.2     1  UNL1        0.2839
     27 O         -61.6671  -44.9429  -24.1535 O.2     1  UNL1       -0.2665
     28 N         -62.4549  -42.7700  -24.5204 N.am    1  UNL1       -0.2766
     29 H         -62.3329  -41.9227  -25.1204 H       1  UNL1        0.1553
     30 C         -62.9807  -42.3389  -27.4727 C.3     1  UNL1        0.0345
     31 C         -61.9510  -43.4285  -27.4766 C.ar    1  UNL1        0.0202
     32 C         -61.4694  -44.1535  -26.3808 C.ar    1  UNL1        0.1946
     33 O         -60.5654  -45.0302  -26.7809 O.2     1  UNL1       -0.4492
     34 C         -60.4364  -44.9115  -28.0796 C.ar    1  UNL1        0.1452
     35 C         -59.5928  -45.6370  -28.9136 C.ar    1  UNL1        0.0375
     36 C         -59.6119  -45.3441  -30.2882 C.ar    1  UNL1        0.0031
     37 C         -60.4691  -44.3362  -30.8066 C.ar    1  UNL1        0.0002
     38 C         -61.3128  -43.6211  -29.9230 C.ar    1  UNL1        0.0028
     39 C         -61.2682  -43.9381  -28.5644 C.ar    1  UNL1        0.0337
     40 C         -60.4804  -44.0355  -32.2608 C.ar    1  UNL1        0.0000
     41 C         -59.3254  -44.2324  -33.0415 C.ar    1  UNL1        0.0000
     42 C         -59.3388  -43.9473  -34.4103 C.ar    1  UNL1        0.0000
     43 C         -60.5016  -43.4647  -35.0147 C.ar    1  UNL1        0.0000
     44 C         -61.6540  -43.2654  -34.2512 C.ar    1  UNL1        0.0000
     45 C         -61.6461  -43.5478  -32.8818 C.ar    1  UNL1        0.0000
@<TRIPOS>BOND
     1    30    31    1
     2    31    32   ar
     3    32    26    1
     4    26    27    2
     5    26    28   am
     6    28     1    1
     7     1     2   ar
     8     2     3   ar
     9     3     4   ar
    10     4     7    1
    11     7     8    1
    12     8     9    1
    13     9    10    1
    14    10    14    1
    15    14    15    1
    16    15    16    1
    17    16    17   ar
    18    17    18   ar
    19    18    19   ar
    20    19    20   ar
    21    20    22    1
    22    22    23    2
    23    22    24    1
    24    20    21   ar
    25    10    11    1
    26    11    12    1
    27    12    13    1
    28     4     5   ar
    29     5     6   ar
    30    32    33   ar
    31    33    34   ar
    32    34    35   ar
    33    35    36   ar
    34    36    37   ar
    35    37    40    1
    36    40    41   ar
    37    41    42   ar
    38    42    43   ar
    39    43    44   ar
    40    44    45   ar
    41    37    38   ar
    42    38    39   ar
    43    39    31   ar
    44     6     1   ar
    45    39    34   ar
    46    12     7    1
    47    45    40   ar
    48    21    16   ar
    49    28    29    1
    50    24    25    1
@<TRIPOS>MOLECULE
*****
 45 50 0 0 0
SMALL
GASTEIGER

@<TRIPOS>ATOM
      1 C         -62.3701  -41.8802  -20.6215 C.ar    1  UNL1        0.0702
      2 C         -63.0083  -42.6394  -21.6085 C.ar    1  UNL1        0.0191
      3 C         -62.3731  -43.7517  -22.1627 C.ar    1  UNL1        0.0356
      4 C         -61.0781  -44.0981  -21.7368 C.ar    1  UNL1        0.1317
      5 N         -60.4684  -43.3249  -20.7946 N.ar    1  UNL1       -0.2279
      6 C         -61.0689  -42.2400  -20.2386 C.ar    1  UNL1        0.1149
      7 N         -60.3897  -45.2511  -22.2768 N.pl3   1  UNL1       -0.2949
      8 C         -59.0207  -45.1029  -22.8061 C.3     1  UNL1        0.0922
      9 C         -58.6213  -46.2588  -23.7342 C.3     1  UNL1        0.0252
     10 C         -59.8277  -46.8158  -24.5034 C.3     1  UNL1        0.0471
     11 C         -60.8695  -47.3907  -23.5173 C.3     1  UNL1        0.0235
     12 C         -61.0188  -46.5857  -22.1952 C.3     1  UNL1        0.0743
     13 C         -60.4493  -47.3474  -20.9918 C.3     1  UNL1        0.0215
     14 C         -60.4408  -45.7635  -25.4485 C.3     1  UNL1        0.2054
     15 O         -60.0181  -46.0118  -26.7878 O.3     1  UNL1       -0.4755
     16 C         -60.3250  -45.1897  -27.8820 C.ar    1  UNL1        0.1388
     17 C         -61.3114  -44.1885  -27.8192 C.ar    1  UNL1        0.0369
     18 C         -61.5725  -43.3905  -28.9342 C.ar    1  UNL1        0.0033
     19 C         -60.8607  -43.5840  -30.1198 C.ar    1  UNL1        0.0066
     20 C         -59.8801  -44.5877  -30.2072 C.ar    1  UNL1        0.0785
     21 C         -59.6151  -45.3799  -29.0745 C.ar    1  UNL1        0.0433
     22 C         -59.1297  -44.7812  -31.4720 C.2     1  UNL1        0.3381
     23 O         -59.7017  -44.5754  -32.5756 O.2     1  UNL1       -0.2451
     24 O         -57.8007  -45.2035  -31.4809 O.3     1  UNL1       -0.4771
     25 H         -57.3126  -45.4868  -30.6414 H       1  UNL1        0.2954
     26 C         -62.7161  -39.3717  -20.4442 C.2     1  UNL1        0.2839
     27 O         -61.6637  -39.1168  -21.0892 O.2     1  UNL1       -0.2665
     28 N         -63.0288  -40.7246  -20.0750 N.am    1  UNL1       -0.2766
     29 H         -63.7159  -40.8757  -19.3019 H       1  UNL1        0.1553
     30 C         -65.9135  -39.3097  -20.6580 C.3     1  UNL1        0.0345
     31 C         -65.0069  -38.2432  -20.1212 C.ar    1  UNL1        0.0202
     32 C         -63.6108  -38.2740  -20.0305 C.ar    1  UNL1        0.1946
     33 O         -63.1674  -37.1478  -19.5005 O.2     1  UNL1       -0.4492
     34 C         -64.2038  -36.3880  -19.2436 C.ar    1  UNL1        0.1452
     35 C         -64.1992  -35.1164  -18.6810 C.ar    1  UNL1        0.0375
     36 C         -65.4351  -34.4750  -18.4892 C.ar    1  UNL1        0.0031
     37 C         -66.6511  -35.1101  -18.8604 C.ar    1  UNL1        0.0002
     38 C         -66.6114  -36.4052  -19.4306 C.ar    1  UNL1        0.0028
     39 C         -65.3669  -37.0123  -19.6069 C.ar    1  UNL1        0.0337
     40 C         -67.9508  -34.4227  -18.6527 C.ar    1  UNL1        0.0000
     41 C         -69.0926  -34.8167  -19.3761 C.ar    1  UNL1        0.0000
     42 C         -70.3149  -34.1668  -19.1793 C.ar    1  UNL1        0.0000
     43 C         -70.4123  -33.1197  -18.2602 C.ar    1  UNL1        0.0000
     44 C         -69.2869  -32.7196  -17.5363 C.ar    1  UNL1        0.0000
     45 C         -68.0619  -33.3652  -17.7298 C.ar    1  UNL1        0.0000
@<TRIPOS>BOND
     1    30    31    1
     2    31    32   ar
     3    32    26    1
     4    26    27    2
     5    26    28   am
     6    28     1    1
     7     1     2   ar
     8     2     3   ar
     9     3     4   ar
    10     4     7    1
    11     7     8    1
    12     8     9    1
    13     9    10    1
    14    10    14    1
    15    14    15    1
    16    15    16    1
    17    16    17   ar
    18    17    18   ar
    19    18    19   ar
    20    19    20   ar
    21    20    22    1
    22    22    23    2
    23    22    24    1
    24    20    21   ar
    25    10    11    1
    26    11    12    1
    27    12    13    1
    28     4     5   ar
    29     5     6   ar
    30    32    33   ar
    31    33    34   ar
    32    34    35   ar
    33    35    36   ar
    34    36    37   ar
    35    37    40    1
    36    40    41   ar
    37    41    42   ar
    38    42    43   ar
    39    43    44   ar
    40    44    45   ar
    41    37    38   ar
    42    38    39   ar
    43    39    31   ar
    44     6     1   ar
    45    39    34   ar
    46    12     7    1
    47    45    40   ar
    48    21    16   ar
    49    28    29    1
    50    24    25    1
@<TRIPOS>MOLECULE
*****
 45 50 0 0 0
SMALL
GASTEIGER

@<TRIPOS>ATOM
      1 C         -62.0017  -47.0928  -27.2948 C.ar    1  UNL1        0.0702
      2 C         -60.7564  -46.7994  -27.8614 C.ar    1  UNL1        0.0191
      3 C         -60.5473  -45.5826  -28.5121 C.ar    1  UNL1        0.0356
      4 C         -61.6009  -44.6562  -28.6118 C.ar    1  UNL1        0.1317
      5 N         -62.8117  -44.9792  -28.0760 N.ar    1  UNL1       -0.2279
      6 C         -63.0371  -46.1560  -27.4349 C.ar    1  UNL1        0.1149
      7 N         -61.4221  -43.3781  -29.2671 N.pl3   1  UNL1       -0.2949
      8 C         -60.6881  -42.3000  -28.5778 C.3     1  UNL1        0.0922
      9 C         -60.9780  -40.9162  -29.1761 C.3     1  UNL1        0.0252
     10 C         -62.4078  -40.8211  -29.7274 C.3     1  UNL1        0.0471
     11 C         -62.6066  -41.8397  -30.8725 C.3     1  UNL1        0.0235
     12 C         -61.8796  -43.1980  -30.6607 C.3     1  UNL1        0.0743
     13 C         -60.6917  -43.3684  -31.6157 C.3     1  UNL1        0.0215
     14 C         -63.4631  -40.9835  -28.6154 C.3     1  UNL1        0.2054
     15 O         -62.9899  -41.8992  -27.6298 O.3     1  UNL1       -0.4755
     16 C         -63.2423  -41.7855  -26.2547 C.ar    1  UNL1        0.1388
     17 C         -62.4560  -42.4379  -25.2877 C.ar    1  UNL1        0.0369
     18 C         -62.7436  -42.2846  -23.9304 C.ar    1  UNL1        0.0033
     19 C         -63.8158  -41.4877  -23.5243 C.ar    1  UNL1        0.0066
     20 C         -64.6218  -40.8377  -24.4755 C.ar    1  UNL1        0.0785
     21 C         -64.3174  -40.9884  -25.8413 C.ar    1  UNL1        0.0433
     22 C         -65.7564  -39.9923  -24.0304 C.2     1  UNL1        0.3381
     23 O         -66.6095  -40.4618  -23.2309 O.2     1  UNL1       -0.2451
     24 O         -65.9210  -38.6843  -24.4850 O.3     1  UNL1       -0.4771
     25 H         -65.3367  -38.2792  -25.2046 H       1  UNL1        0.2954
     26 C         -62.0163  -48.5826  -25.2396 C.2     1  UNL1        0.2839
     27 O         -61.4087  -47.7294  -24.5386 O.2     1  UNL1       -0.2665
     28 N         -62.2082  -48.3593  -26.6459 N.am    1  UNL1       -0.2766
     29 H         -62.4285  -49.1850  -27.2480 H       1  UNL1        0.1553
     30 C         -65.0550  -49.5799  -25.0277 C.3     1  UNL1        0.0345
     31 C         -63.8226  -50.2737  -24.5303 C.ar    1  UNL1        0.0202
     32 C         -62.4974  -49.8341  -24.6241 C.ar    1  UNL1        0.1946
     33 O         -61.6873  -50.7195  -24.0711 O.2     1  UNL1       -0.4492
     34 C         -62.4190  -51.7101  -23.6229 C.ar    1  UNL1        0.1452
     35 C         -61.9787  -52.8569  -22.9715 C.ar    1  UNL1        0.0375
     36 C         -62.9411  -53.8011  -22.5741 C.ar    1  UNL1        0.0031
     37 C         -64.3221  -53.5866  -22.8319 C.ar    1  UNL1        0.0002
     38 C         -64.7283  -52.4050  -23.4975 C.ar    1  UNL1        0.0028
     39 C         -63.7459  -51.4891  -23.8776 C.ar    1  UNL1        0.0337
     40 C         -65.3298  -54.5913  -22.4075 C.ar    1  UNL1        0.0000
     41 C         -66.6566  -54.2048  -22.1380 C.ar    1  UNL1        0.0000
     42 C         -67.6030  -55.1529  -21.7375 C.ar    1  UNL1        0.0000
     43 C         -67.2381  -56.4942  -21.6025 C.ar    1  UNL1        0.0000
     44 C         -65.9253  -56.8904  -21.8672 C.ar    1  UNL1        0.0000
     45 C         -64.9744  -55.9464  -22.2670 C.ar    1  UNL1        0.0000
@<TRIPOS>BOND
     1    30    31    1
     2    31    32   ar
     3    32    26    1
     4    26    27    2
     5    26    28   am
     6    28     1    1
     7     1     2   ar
     8     2     3   ar
     9     3     4   ar
    10     4     7    1
    11     7     8    1
    12     8     9    1
    13     9    10    1
    14    10    14    1
    15    14    15    1
    16    15    16    1
    17    16    17   ar
    18    17    18   ar
    19    18    19   ar
    20    19    20   ar
    21    20    22    1
    22    22    23    2
    23    22    24    1
    24    20    21   ar
    25    10    11    1
    26    11    12    1
    27    12    13    1
    28     4     5   ar
    29     5     6   ar
    30    32    33   ar
    31    33    34   ar
    32    34    35   ar
    33    35    36   ar
    34    36    37   ar
    35    37    40    1
    36    40    41   ar
    37    41    42   ar
    38    42    43   ar
    39    43    44   ar
    40    44    45   ar
    41    37    38   ar
    42    38    39   ar
    43    39    31   ar
    44     6     1   ar
    45    39    34   ar
    46    12     7    1
    47    45    40   ar
    48    21    16   ar
    49    28    29    1
    50    24    25    1
@<TRIPOS>MOLECULE
*****
 45 50 0 0 0
SMALL
GASTEIGER

@<TRIPOS>ATOM
      1 C         -62.1431  -41.8201  -22.9933 C.ar    1  UNL1        0.0702
      2 C         -61.2743  -41.7688  -21.8977 C.ar    1  UNL1        0.0191
      3 C         -61.7476  -41.3918  -20.6401 C.ar    1  UNL1        0.0356
      4 C         -63.1016  -41.0459  -20.4805 C.ar    1  UNL1        0.1317
      5 N         -63.9197  -41.0771  -21.5700 N.ar    1  UNL1       -0.2279
      6 C         -63.4818  -41.4445  -22.8029 C.ar    1  UNL1        0.1149
      7 N         -63.6350  -40.6617  -19.1910 N.pl3   1  UNL1       -0.2949
      8 C         -63.4595  -41.5568  -18.0317 C.3     1  UNL1        0.0922
      9 C         -64.4455  -41.2479  -16.8962 C.3     1  UNL1        0.0252
     10 C         -65.7848  -40.7211  -17.4312 C.3     1  UNL1        0.0471
     11 C         -65.5696  -39.3937  -18.1928 C.3     1  UNL1        0.0235
     12 C         -64.2546  -39.3310  -19.0205 C.3     1  UNL1        0.0743
     13 C         -63.2339  -38.3661  -18.4045 C.3     1  UNL1        0.0215
     14 C         -66.5125  -41.7732  -18.2912 C.3     1  UNL1        0.2054
     15 O         -66.2656  -43.0779  -17.7707 O.3     1  UNL1       -0.4755
     16 C         -65.5206  -44.0671  -18.4294 C.ar    1  UNL1        0.1388
     17 C         -65.1313  -43.9459  -19.7759 C.ar    1  UNL1        0.0369
     18 C         -64.3822  -44.9552  -20.3827 C.ar    1  UNL1        0.0033
     19 C         -64.0192  -46.0932  -19.6596 C.ar    1  UNL1        0.0066
     20 C         -64.4095  -46.2395  -18.3168 C.ar    1  UNL1        0.0785
     21 C         -65.1546  -45.2116  -17.7095 C.ar    1  UNL1        0.0433
     22 C         -64.0152  -47.4525  -17.5595 C.2     1  UNL1        0.3381
     23 O         -64.7625  -48.4668  -17.5712 O.2     1  UNL1       -0.2451
     24 O         -62.8383  -47.5027  -16.8130 O.3     1  UNL1       -0.4771
     25 H         -62.2457  -46.6948  -16.6737 H       1  UNL1        0.2954
     26 C         -61.8383  -43.4781  -24.8912 C.2     1  UNL1        0.2839
     27 O         -62.2624  -44.4434  -24.2006 O.2     1  UNL1       -0.2665
     28 N         -61.6365  -42.1900  -24.2872 N.am    1  UNL1       -0.2766
     29 H         -61.0132  -41.5100  -24.7790 H       1  UNL1        0.1553
     30 C         -63.1672  -41.9958  -27.4031 C.3     1  UNL1        0.0345
     31 C         -62.0856  -43.0338  -27.4145 C.ar    1  UNL1        0.0202
     32 C         -61.5086  -43.6793  -26.3150 C.ar    1  UNL1        0.1946
     33 O         -60.5849  -44.5308  -26.7244 O.2     1  UNL1       -0.4492
     34 C         -60.5336  -44.4712  -28.0326 C.ar    1  UNL1        0.1452
     35 C         -59.7016  -45.1964  -28.8784 C.ar    1  UNL1        0.0375
     36 C         -59.8109  -44.9739  -30.2619 C.ar    1  UNL1        0.0031
     37 C         -60.7450  -44.0352  -30.7774 C.ar    1  UNL1        0.0002
     38 C         -61.5740  -43.3178  -29.8816 C.ar    1  UNL1        0.0028
     39 C         -61.4388  -43.5640  -28.5144 C.ar    1  UNL1        0.0337
     40 C         -60.8514  -43.8084  -32.2411 C.ar    1  UNL1        0.0000
     41 C         -62.0578  -43.3572  -32.8098 C.ar    1  UNL1        0.0000
     42 C         -62.1553  -43.1457  -34.1885 C.ar    1  UNL1        0.0000
     43 C         -61.0532  -43.3803  -35.0135 C.ar    1  UNL1        0.0000
     44 C         -59.8508  -43.8277  -34.4616 C.ar    1  UNL1        0.0000
     45 C         -59.7478  -44.0420  -33.0837 C.ar    1  UNL1        0.0000
@<TRIPOS>BOND
     1    30    31    1
     2    31    32   ar
     3    32    26    1
     4    26    27    2
     5    26    28   am
     6    28     1    1
     7     1     2   ar
     8     2     3   ar
     9     3     4   ar
    10     4     7    1
    11     7     8    1
    12     8     9    1
    13     9    10    1
    14    10    14    1
    15    14    15    1
    16    15    16    1
    17    16    17   ar
    18    17    18   ar
    19    18    19   ar
    20    19    20   ar
    21    20    22    1
    22    22    23    2
    23    22    24    1
    24    20    21   ar
    25    10    11    1
    26    11    12    1
    27    12    13    1
    28     4     5   ar
    29     5     6   ar
    30    32    33   ar
    31    33    34   ar
    32    34    35   ar
    33    35    36   ar
    34    36    37   ar
    35    37    40    1
    36    40    41   ar
    37    41    42   ar
    38    42    43   ar
    39    43    44   ar
    40    44    45   ar
    41    37    38   ar
    42    38    39   ar
    43    39    31   ar
    44     6     1   ar
    45    39    34   ar
    46    12     7    1
    47    45    40   ar
    48    21    16   ar
    49    28    29    1
    50    24    25    1
@<TRIPOS>MOLECULE
*****
 45 50 0 0 0
SMALL
GASTEIGER

@<TRIPOS>ATOM
      1 C         -62.0023  -47.2615  -27.4248 C.ar    1  UNL1        0.0702
      2 C         -60.7201  -46.8821  -27.8370 C.ar    1  UNL1        0.0191
      3 C         -60.5283  -45.6879  -28.5333 C.ar    1  UNL1        0.0356
      4 C         -61.6339  -44.8727  -28.8354 C.ar    1  UNL1        0.1317
      5 N         -62.8752  -45.2798  -28.4470 N.ar    1  UNL1       -0.2279
      6 C         -63.0852  -46.4364  -27.7650 C.ar    1  UNL1        0.1149
      7 N         -61.4766  -43.6207  -29.5444 N.pl3   1  UNL1       -0.2949
      8 C         -60.8968  -42.4556  -28.8498 C.3     1  UNL1        0.0922
      9 C         -61.2179  -41.1308  -29.5562 C.3     1  UNL1        0.0252
     10 C         -62.5845  -41.1732  -30.2546 C.3     1  UNL1        0.0471
     11 C         -62.5894  -42.2624  -31.3510 C.3     1  UNL1        0.0235
     12 C         -61.7957  -43.5487  -30.9855 C.3     1  UNL1        0.0743
     13 C         -60.5045  -43.6784  -31.8030 C.3     1  UNL1        0.0215
     14 C         -63.7375  -41.3568  -29.2479 C.3     1  UNL1        0.2054
     15 O         -63.4605  -40.6233  -28.0566 O.3     1  UNL1       -0.4755
     16 C         -63.4782  -41.1710  -26.7654 C.ar    1  UNL1        0.1388
     17 C         -64.2303  -40.6080  -25.7182 C.ar    1  UNL1        0.0369
     18 C         -64.2211  -41.1972  -24.4529 C.ar    1  UNL1        0.0033
     19 C         -63.4619  -42.3451  -24.2170 C.ar    1  UNL1        0.0066
     20 C         -62.6931  -42.9157  -25.2467 C.ar    1  UNL1        0.0785
     21 C         -62.7175  -42.3218  -26.5224 C.ar    1  UNL1        0.0433
     22 C         -61.8928  -44.1365  -24.9832 C.2     1  UNL1        0.3381
     23 O         -60.7005  -44.2008  -25.3851 O.2     1  UNL1       -0.2451
     24 O         -62.4277  -45.2350  -24.3110 O.3     1  UNL1       -0.4771
     25 H         -63.4041  -45.2946  -24.0533 H       1  UNL1        0.2954
     26 C         -62.0882  -48.6483  -25.3003 C.2     1  UNL1        0.2839
     27 O         -61.5818  -47.7281  -24.6036 O.2     1  UNL1       -0.2665
     28 N         -62.1871  -48.5050  -26.7266 N.am    1  UNL1       -0.2766
     29 H         -62.3167  -49.3703  -27.2986 H       1  UNL1        0.1553
     30 C         -65.1126  -49.6684  -25.0075 C.3     1  UNL1        0.0345
     31 C         -63.8636  -50.3439  -24.5266 C.ar    1  UNL1        0.0202
     32 C         -62.5446  -49.8944  -24.6559 C.ar    1  UNL1        0.1946
     33 O         -61.7150  -50.7642  -24.1073 O.2     1  UNL1       -0.4492
     34 C         -62.4278  -51.7542  -23.6285 C.ar    1  UNL1        0.1452
     35 C         -61.9634  -52.8872  -22.9697 C.ar    1  UNL1        0.0375
     36 C         -62.9085  -53.8334  -22.5374 C.ar    1  UNL1        0.0031
     37 C         -64.2966  -53.6347  -22.7682 C.ar    1  UNL1        0.0002
     38 C         -64.7276  -52.4669  -23.4424 C.ar    1  UNL1        0.0028
     39 C         -63.7619  -51.5486  -23.8575 C.ar    1  UNL1        0.0337
     40 C         -65.2859  -54.6415  -22.3070 C.ar    1  UNL1        0.0000
     41 C         -64.9729  -56.0141  -22.3270 C.ar    1  UNL1        0.0000
     42 C         -65.9068  -56.9599  -21.8931 C.ar    1  UNL1        0.0000
     43 C         -67.1602  -56.5484  -21.4344 C.ar    1  UNL1        0.0000
     44 C         -67.4827  -55.1898  -21.4093 C.ar    1  UNL1        0.0000
     45 C         -66.5530  -54.2396  -21.8430 C.ar    1  UNL1        0.0000
@<TRIPOS>BOND
     1    30    31    1
     2    31    32   ar
     3    32    26    1
     4    26    27    2
     5    26    28   am
     6    28     1    1
     7     1     2   ar
     8     2     3   ar
     9     3     4   ar
    10     4     7    1
    11     7     8    1
    12     8     9    1
    13     9    10    1
    14    10    14    1
    15    14    15    1
    16    15    16    1
    17    16    17   ar
    18    17    18   ar
    19    18    19   ar
    20    19    20   ar
    21    20    22    1
    22    22    23    2
    23    22    24    1
    24    20    21   ar
    25    10    11    1
    26    11    12    1
    27    12    13    1
    28     4     5   ar
    29     5     6   ar
    30    32    33   ar
    31    33    34   ar
    32    34    35   ar
    33    35    36   ar
    34    36    37   ar
    35    37    40    1
    36    40    41   ar
    37    41    42   ar
    38    42    43   ar
    39    43    44   ar
    40    44    45   ar
    41    37    38   ar
    42    38    39   ar
    43    39    31   ar
    44     6     1   ar
    45    39    34   ar
    46    12     7    1
    47    45    40   ar
    48    21    16   ar
    49    28    29    1
    50    24    25    1
@<TRIPOS>MOLECULE
*****
 45 50 0 0 0
SMALL
GASTEIGER

@<TRIPOS>ATOM
      1 C         -62.2532  -42.0576  -20.5158 C.ar    1  UNL1        0.0702
      2 C         -63.0043  -43.0371  -21.1750 C.ar    1  UNL1        0.0191
      3 C         -62.3818  -44.1759  -21.6881 C.ar    1  UNL1        0.0356
      4 C         -60.9899  -44.3283  -21.5552 C.ar    1  UNL1        0.1317
      5 N         -60.2785  -43.3459  -20.9338 N.ar    1  UNL1       -0.2279
      6 C         -60.8636  -42.2306  -20.4234 C.ar    1  UNL1        0.1149
      7 N         -60.3076  -45.4999  -22.0620 N.pl3   1  UNL1       -0.2949
      8 C         -58.9482  -45.3695  -22.6198 C.3     1  UNL1        0.0922
      9 C         -58.5615  -46.5596  -23.5092 C.3     1  UNL1        0.0252
     10 C         -59.7792  -47.1483  -24.2357 C.3     1  UNL1        0.0471
     11 C         -60.8027  -47.6868  -23.2106 C.3     1  UNL1        0.0235
     12 C         -60.9317  -46.8316  -21.9182 C.3     1  UNL1        0.0743
     13 C         -60.3399  -47.5451  -20.6962 C.3     1  UNL1        0.0215
     14 C         -60.4110  -46.1346  -25.2102 C.3     1  UNL1        0.2054
     15 O         -61.8139  -46.3706  -25.3110 O.3     1  UNL1       -0.4755
     16 C         -62.5586  -46.2343  -26.4917 C.ar    1  UNL1        0.1388
     17 C         -62.9319  -44.9794  -27.0067 C.ar    1  UNL1        0.0369
     18 C         -63.6657  -44.8977  -28.1912 C.ar    1  UNL1        0.0033
     19 C         -64.0383  -46.0600  -28.8693 C.ar    1  UNL1        0.0066
     20 C         -63.6864  -47.3241  -28.3645 C.ar    1  UNL1        0.0785
     21 C         -62.9364  -47.3968  -27.1758 C.ar    1  UNL1        0.0433
     22 C         -64.0867  -48.5509  -29.0960 C.2     1  UNL1        0.3381
     23 O         -63.6565  -49.6728  -28.7171 O.2     1  UNL1       -0.2451
     24 O         -64.9210  -48.5017  -30.2124 O.3     1  UNL1       -0.4771
     25 H         -65.2180  -47.6312  -30.6337 H       1  UNL1        0.2954
     26 C         -62.6251  -39.5470  -20.4685 C.2     1  UNL1        0.2839
     27 O         -61.6016  -39.3183  -21.1677 O.2     1  UNL1       -0.2665
     28 N         -62.9056  -40.8798  -20.0108 N.am    1  UNL1       -0.2766
     29 H         -63.5605  -40.9937  -19.2042 H       1  UNL1        0.1553
     30 C         -65.8276  -39.5195  -20.5950 C.3     1  UNL1        0.0345
     31 C         -64.9160  -38.4214  -20.1364 C.ar    1  UNL1        0.0202
     32 C         -63.5176  -38.4372  -20.0836 C.ar    1  UNL1        0.1946
     33 O         -63.0697  -37.2832  -19.6216 O.2     1  UNL1       -0.4492
     34 C         -64.1053  -36.5196  -19.3727 C.ar    1  UNL1        0.1452
     35 C         -64.0963  -35.2221  -18.8729 C.ar    1  UNL1        0.0375
     36 C         -65.3321  -34.5814  -18.6777 C.ar    1  UNL1        0.0031
     37 C         -66.5521  -35.2429  -18.9833 C.ar    1  UNL1        0.0002
     38 C         -66.5168  -36.5639  -19.4909 C.ar    1  UNL1        0.0028
     39 C         -65.2724  -37.1695  -19.6725 C.ar    1  UNL1        0.0337
     40 C         -67.8516  -34.5559  -18.7728 C.ar    1  UNL1        0.0000
     41 C         -68.9869  -34.9276  -19.5180 C.ar    1  UNL1        0.0000
     42 C         -70.2090  -34.2782  -19.3183 C.ar    1  UNL1        0.0000
     43 C         -70.3127  -33.2538  -18.3748 C.ar    1  UNL1        0.0000
     44 C         -69.1939  -32.8759  -17.6290 C.ar    1  UNL1        0.0000
     45 C         -67.9691  -33.5211  -17.8252 C.ar    1  UNL1        0.0000
@<TRIPOS>BOND
     1    30    31    1
     2    31    32   ar
     3    32    26    1
     4    26    27    2
     5    26    28   am
     6    28     1    1
     7     1     2   ar
     8     2     3   ar
     9     3     4   ar
    10     4     7    1
    11     7     8    1
    12     8     9    1
    13     9    10    1
    14    10    14    1
    15    14    15    1
    16    15    16    1
    17    16    17   ar
    18    17    18   ar
    19    18    19   ar
    20    19    20   ar
    21    20    22    1
    22    22    23    2
    23    22    24    1
    24    20    21   ar
    25    10    11    1
    26    11    12    1
    27    12    13    1
    28     4     5   ar
    29     5     6   ar
    30    32    33   ar
    31    33    34   ar
    32    34    35   ar
    33    35    36   ar
    34    36    37   ar
    35    37    40    1
    36    40    41   ar
    37    41    42   ar
    38    42    43   ar
    39    43    44   ar
    40    44    45   ar
    41    37    38   ar
    42    38    39   ar
    43    39    31   ar
    44     6     1   ar
    45    39    34   ar
    46    12     7    1
    47    45    40   ar
    48    21    16   ar
    49    28    29    1
    50    24    25    1
@<TRIPOS>MOLECULE
*****
 45 50 0 0 0
SMALL
GASTEIGER

@<TRIPOS>ATOM
      1 C         -62.3557  -41.7155  -20.6083 C.ar    1  UNL1        0.0702
      2 C         -61.0264  -41.6011  -21.0299 C.ar    1  UNL1        0.0191
      3 C         -60.3555  -42.7072  -21.5536 C.ar    1  UNL1        0.0356
      4 C         -61.0165  -43.9457  -21.6405 C.ar    1  UNL1        0.1317
      5 N         -62.3018  -44.0361  -21.1964 N.ar    1  UNL1       -0.2279
      6 C         -62.9758  -42.9720  -20.6865 C.ar    1  UNL1        0.1149
      7 N         -60.3609  -45.1138  -22.1888 N.pl3   1  UNL1       -0.2949
      8 C         -58.9699  -45.0127  -22.6696 C.3     1  UNL1        0.0922
      9 C         -58.5901  -46.1611  -23.6150 C.3     1  UNL1        0.0252
     10 C         -59.7932  -46.6446  -24.4374 C.3     1  UNL1        0.0471
     11 C         -60.8912  -47.1979  -23.5011 C.3     1  UNL1        0.0235
     12 C         -61.0495  -46.4210  -22.1633 C.3     1  UNL1        0.0743
     13 C         -60.5540  -47.2374  -20.9632 C.3     1  UNL1        0.0215
     14 C         -60.3283  -45.5426  -25.3731 C.3     1  UNL1        0.2054
     15 O         -61.5273  -44.9903  -24.8334 O.3     1  UNL1       -0.4755
     16 C         -62.1471  -43.8244  -25.3068 C.ar    1  UNL1        0.1388
     17 C         -62.1090  -43.4476  -26.6617 C.ar    1  UNL1        0.0369
     18 C         -62.7502  -42.2818  -27.0835 C.ar    1  UNL1        0.0033
     19 C         -63.4284  -41.4799  -26.1635 C.ar    1  UNL1        0.0066
     20 C         -63.4672  -41.8319  -24.8029 C.ar    1  UNL1        0.0785
     21 C         -62.8280  -43.0153  -24.3883 C.ar    1  UNL1        0.0433
     22 C         -64.1932  -40.9722  -23.8363 C.2     1  UNL1        0.3381
     23 O         -64.8829  -41.5017  -22.9245 O.2     1  UNL1       -0.2451
     24 O         -64.1498  -39.5805  -23.9137 O.3     1  UNL1       -0.4771
     25 H         -63.7040  -39.0901  -24.6779 H       1  UNL1        0.2954
     26 C         -62.7444  -39.2138  -20.4243 C.2     1  UNL1        0.2839
     27 O         -61.7063  -38.9397  -21.0845 O.2     1  UNL1       -0.2665
     28 N         -63.0271  -40.5723  -20.0515 N.am    1  UNL1       -0.2766
     29 H         -63.7000  -40.7361  -19.2685 H       1  UNL1        0.1553
     30 C         -65.9402  -39.1763  -20.6653 C.3     1  UNL1        0.0345
     31 C         -65.0481  -38.1126  -20.0994 C.ar    1  UNL1        0.0202
     32 C         -63.6526  -38.1327  -19.9969 C.ar    1  UNL1        0.1946
     33 O         -63.2242  -37.0133  -19.4408 O.2     1  UNL1       -0.4492
     34 C         -64.2698  -36.2681  -19.1780 C.ar    1  UNL1        0.1452
     35 C         -64.2817  -35.0080  -18.5903 C.ar    1  UNL1        0.0375
     36 C         -65.5251  -34.3817  -18.3968 C.ar    1  UNL1        0.0031
     37 C         -66.7318  -35.0201  -18.7914 C.ar    1  UNL1        0.0002
     38 C         -66.6753  -36.3032  -19.3868 C.ar    1  UNL1        0.0028
     39 C         -65.4239  -36.8954  -19.5640 C.ar    1  UNL1        0.0337
     40 C         -68.0396  -34.3487  -18.5817 C.ar    1  UNL1        0.0000
     41 C         -69.1797  -34.7627  -19.2966 C.ar    1  UNL1        0.0000
     42 C         -70.4095  -34.1278  -19.0980 C.ar    1  UNL1        0.0000
     43 C         -70.5162  -33.0759  -18.1855 C.ar    1  UNL1        0.0000
     44 C         -69.3928  -32.6560  -17.4699 C.ar    1  UNL1        0.0000
     45 C         -68.1602  -33.2866  -17.6653 C.ar    1  UNL1        0.0000
@<TRIPOS>BOND
     1    30    31    1
     2    31    32   ar
     3    32    26    1
     4    26    27    2
     5    26    28   am
     6    28     1    1
     7     1     2   ar
     8     2     3   ar
     9     3     4   ar
    10     4     7    1
    11     7     8    1
    12     8     9    1
    13     9    10    1
    14    10    14    1
    15    14    15    1
    16    15    16    1
    17    16    17   ar
    18    17    18   ar
    19    18    19   ar
    20    19    20   ar
    21    20    22    1
    22    22    23    2
    23    22    24    1
    24    20    21   ar
    25    10    11    1
    26    11    12    1
    27    12    13    1
    28     4     5   ar
    29     5     6   ar
    30    32    33   ar
    31    33    34   ar
    32    34    35   ar
    33    35    36   ar
    34    36    37   ar
    35    37    40    1
    36    40    41   ar
    37    41    42   ar
    38    42    43   ar
    39    43    44   ar
    40    44    45   ar
    41    37    38   ar
    42    38    39   ar
    43    39    31   ar
    44     6     1   ar
    45    39    34   ar
    46    12     7    1
    47    45    40   ar
    48    21    16   ar
    49    28    29    1
    50    24    25    1
@<TRIPOS>MOLECULE
*****
 45 50 0 0 0
SMALL
GASTEIGER

@<TRIPOS>ATOM
      1 C         -62.2578  -41.9762  -20.4670 C.ar    1  UNL1        0.0702
      2 C         -63.0091  -42.9592  -21.1205 C.ar    1  UNL1        0.0191
      3 C         -62.3857  -44.0966  -21.6354 C.ar    1  UNL1        0.0356
      4 C         -60.9925  -44.2441  -21.5101 C.ar    1  UNL1        0.1317
      5 N         -60.2810  -43.2584  -20.8942 N.ar    1  UNL1       -0.2279
      6 C         -60.8671  -42.1443  -20.3822 C.ar    1  UNL1        0.1149
      7 N         -60.3091  -45.4142  -22.0189 N.pl3   1  UNL1       -0.2949
      8 C         -58.9256  -45.2935  -22.5163 C.3     1  UNL1        0.0922
      9 C         -58.5217  -46.4670  -23.4201 C.3     1  UNL1        0.0252
     10 C         -59.7176  -47.0154  -24.2116 C.3     1  UNL1        0.0471
     11 C         -60.7918  -47.5618  -23.2442 C.3     1  UNL1        0.0235
     12 C         -60.9605  -46.7380  -21.9362 C.3     1  UNL1        0.0743
     13 C         -60.4323  -47.4929  -20.7100 C.3     1  UNL1        0.0215
     14 C         -60.2912  -45.9660  -25.1843 C.3     1  UNL1        0.2054
     15 O         -61.7048  -46.1242  -25.2874 O.3     1  UNL1       -0.4755
     16 C         -62.3695  -46.5924  -26.4304 C.ar    1  UNL1        0.1388
     17 C         -62.2880  -47.9314  -26.8542 C.ar    1  UNL1        0.0369
     18 C         -62.9765  -48.3492  -27.9942 C.ar    1  UNL1        0.0033
     19 C         -63.7458  -47.4406  -28.7238 C.ar    1  UNL1        0.0066
     20 C         -63.8297  -46.0951  -28.3245 C.ar    1  UNL1        0.0785
     21 C         -63.1418  -45.6852  -27.1671 C.ar    1  UNL1        0.0433
     22 C         -64.6523  -45.1407  -29.1073 C.2     1  UNL1        0.3381
     23 O         -64.0932  -44.2001  -29.7319 O.2     1  UNL1       -0.2451
     24 O         -66.0420  -45.2418  -29.1630 O.3     1  UNL1       -0.4771
     25 H         -66.5636  -45.9050  -28.6049 H       1  UNL1        0.2954
     26 C         -62.6591  -39.4698  -20.4419 C.2     1  UNL1        0.2839
     27 O         -61.6569  -39.2379  -21.1701 O.2     1  UNL1       -0.2665
     28 N         -62.9113  -40.7998  -19.9603 N.am    1  UNL1       -0.2766
     29 H         -63.5438  -40.9110  -19.1355 H       1  UNL1        0.1553
     30 C         -65.8598  -39.4353  -20.6075 C.3     1  UNL1        0.0345
     31 C         -64.9525  -38.3470  -20.1178 C.ar    1  UNL1        0.0202
     32 C         -63.5550  -38.3659  -20.0479 C.ar    1  UNL1        0.1946
     33 O         -63.1114  -37.2211  -19.5595 O.2     1  UNL1       -0.4492
     34 C         -64.1490  -36.4606  -19.3097 C.ar    1  UNL1        0.1452
     35 C         -64.1447  -35.1724  -18.7863 C.ar    1  UNL1        0.0375
     36 C         -65.3820  -34.5335  -18.5949 C.ar    1  UNL1        0.0031
     37 C         -66.5990  -35.1876  -18.9275 C.ar    1  UNL1        0.0002
     38 C         -66.5590  -36.4992  -19.4585 C.ar    1  UNL1        0.0028
     39 C         -65.3132  -37.1033  -19.6356 C.ar    1  UNL1        0.0337
     40 C         -67.9001  -34.5026  -18.7207 C.ar    1  UNL1        0.0000
     41 C         -68.0122  -33.4408  -17.8029 C.ar    1  UNL1        0.0000
     42 C         -69.2390  -32.7984  -17.6094 C.ar    1  UNL1        0.0000
     43 C         -70.3650  -33.2061  -18.3280 C.ar    1  UNL1        0.0000
     44 C         -70.2668  -34.2580  -19.2415 C.ar    1  UNL1        0.0000
     45 C         -69.0428  -34.9047  -19.4383 C.ar    1  UNL1        0.0000
@<TRIPOS>BOND
     1    30    31    1
     2    31    32   ar
     3    32    26    1
     4    26    27    2
     5    26    28   am
     6    28     1    1
     7     1     2   ar
     8     2     3   ar
     9     3     4   ar
    10     4     7    1
    11     7     8    1
    12     8     9    1
    13     9    10    1
    14    10    14    1
    15    14    15    1
    16    15    16    1
    17    16    17   ar
    18    17    18   ar
    19    18    19   ar
    20    19    20   ar
    21    20    22    1
    22    22    23    2
    23    22    24    1
    24    20    21   ar
    25    10    11    1
    26    11    12    1
    27    12    13    1
    28     4     5   ar
    29     5     6   ar
    30    32    33   ar
    31    33    34   ar
    32    34    35   ar
    33    35    36   ar
    34    36    37   ar
    35    37    40    1
    36    40    41   ar
    37    41    42   ar
    38    42    43   ar
    39    43    44   ar
    40    44    45   ar
    41    37    38   ar
    42    38    39   ar
    43    39    31   ar
    44     6     1   ar
    45    39    34   ar
    46    12     7    1
    47    45    40   ar
    48    21    16   ar
    49    28    29    1
    50    24    25    1
