@<TRIPOS>MOLECULE
*****
 37 41 0 0 0
SMALL
GASTEIGER

@<TRIPOS>ATOM
      1 C          -6.2218  -14.0745   27.0934 C.ar    1  UNL1        0.2250
      2 C          -7.5357  -14.4910   27.3191 C.ar    1  UNL1        0.1212
      3 N          -8.1002  -13.7162   28.2757 N.ar    1  UNL1       -0.2945
      4 C          -7.1199  -12.8612   28.6296 C.ar    1  UNL1        0.3119
      5 C          -7.2254  -11.8344   29.5820 C.ar    1  UNL1        0.1317
      6 C          -6.0945  -11.0091   29.7605 C.ar    1  UNL1        0.0286
      7 C          -4.9262  -11.2209   29.0087 C.ar    1  UNL1        0.0777
      8 C          -4.8842  -12.2615   28.0740 C.ar    1  UNL1        0.2963
      9 N          -5.9851  -13.0458   27.9299 N.ar    1  UNL1       -0.1314
     10 H          -9.0168  -13.7661   28.6314 H       1  UNL1        0.1718
     11 C          -8.2899  -15.5499   26.6141 C.ar    1  UNL1        0.0212
     12 C          -8.5826  -16.7471   27.2794 C.ar    1  UNL1        0.0013
     13 C          -9.2764  -17.7726   26.6313 C.ar    1  UNL1       -0.0042
     14 C          -9.6884  -17.6345   25.2851 C.ar    1  UNL1       -0.0228
     15 C          -9.3621  -16.4316   24.6211 C.ar    1  UNL1       -0.0042
     16 C          -8.6690  -15.4095   25.2736 C.ar    1  UNL1        0.0013
     17 C         -10.4554  -18.7389   24.5287 C.3     1  UNL1        0.0189
     18 C         -10.0416  -20.1211   25.0785 C.3     1  UNL1        0.0044
     19 C         -10.1170  -18.6632   23.0237 C.3     1  UNL1        0.0044
     20 C         -11.9919  -18.6167   24.6704 C.3     1  UNL1        0.0044
     21 N          -8.4317  -11.6212   30.3471 N.pl3   1  UNL1       -0.2988
     22 C          -9.7241  -12.1147   29.8561 C.3     1  UNL1        0.1084
     23 C         -10.6691  -12.3797   31.0309 C.3     1  UNL1        0.0941
     24 N         -10.8880  -11.1600   31.8473 N.3     1  UNL1       -0.2647
     25 C          -9.6776  -10.3089   32.0147 C.3     1  UNL1        0.0941
     26 C          -8.3639  -11.0341   31.6903 C.3     1  UNL1        0.1084
     27 C         -11.5043  -11.4904   33.1495 C.3     1  UNL1        0.1200
     28 C         -12.4819  -12.6240   33.0075 C.ar    1  UNL1        0.0885
     29 N         -13.5135  -12.5953   32.1390 N.ar    1  UNL1       -0.2273
     30 C         -14.0777  -13.8159   32.2469 C.ar    1  UNL1        0.1780
     31 N         -13.4461  -14.6057   33.1390 N.ar    1  UNL1       -0.3128
     32 C         -12.4332  -13.8610   33.6296 C.ar    1  UNL1        0.0537
     33 C         -11.3659  -14.3510   34.5661 C.3     1  UNL1        0.0514
     34 C         -13.7516  -16.0140   33.3971 C.3     1  UNL1        0.1073
     35 C         -13.1336  -16.8995   32.3211 C.3     1  UNL1        0.0265
     36 C          -5.1183  -16.0974   26.1170 C.3     1  UNL1        0.0117
     37 C          -5.2527  -14.5780   26.0551 C.3     1  UNL1        0.0989
@<TRIPOS>BOND
     1    36    37    1
     2    37     1    1
     3     1     2   ar
     4     2    11    1
     5    11    12   ar
     6    12    13   ar
     7    13    14   ar
     8    14    17    1
     9    17    18    1
    10    17    19    1
    11    17    20    1
    12    14    15   ar
    13    15    16   ar
    14     2     3   ar
    15     3     4   ar
    16     4     5   ar
    17     5    21    1
    18    21    22    1
    19    22    23    1
    20    23    24    1
    21    24    27    1
    22    27    28    1
    23    28    29   ar
    24    29    30   ar
    25    30    31   ar
    26    31    34    1
    27    34    35    1
    28    31    32   ar
    29    32    33    1
    30    24    25    1
    31    25    26    1
    32     5     6   ar
    33     6     7   ar
    34     7     8   ar
    35     8     9   ar
    36     9     1   ar
    37    16    11   ar
    38     9     4   ar
    39    26    21    1
    40    32    28   ar
    41     3    10    1
@<TRIPOS>MOLECULE
*****
 37 41 0 0 0
SMALL
GASTEIGER

@<TRIPOS>ATOM
      1 C         -11.9690   -7.5903   31.0555 C.ar    1  UNL1        0.2250
      2 C         -11.1223   -8.6692   31.3194 C.ar    1  UNL1        0.1212
      3 N          -9.8340   -8.2886   31.1480 N.ar    1  UNL1       -0.2945
      4 C          -9.9187   -6.9992   30.7638 C.ar    1  UNL1        0.3119
      5 C          -8.8360   -6.1490   30.4853 C.ar    1  UNL1        0.1317
      6 C          -9.1418   -4.8109   30.1565 C.ar    1  UNL1        0.0286
      7 C         -10.4753   -4.3690   30.1164 C.ar    1  UNL1        0.0777
      8 C         -11.5101   -5.2657   30.4049 C.ar    1  UNL1        0.2963
      9 N         -11.1863   -6.5503   30.7095 N.ar    1  UNL1       -0.1314
     10 H          -9.0214   -8.8297   31.2749 H       1  UNL1        0.1718
     11 C         -11.4897  -10.0221   31.7906 C.ar    1  UNL1        0.0212
     12 C         -10.7890  -10.5936   32.8601 C.ar    1  UNL1        0.0013
     13 C         -11.1016  -11.8781   33.3132 C.ar    1  UNL1       -0.0042
     14 C         -12.1223  -12.6388   32.6963 C.ar    1  UNL1       -0.0228
     15 C         -12.8010  -12.0578   31.6025 C.ar    1  UNL1       -0.0042
     16 C         -12.4851  -10.7734   31.1540 C.ar    1  UNL1        0.0013
     17 C         -12.5017  -14.0601   33.1610 C.3     1  UNL1        0.0189
     18 C         -11.9423  -15.0946   32.1606 C.3     1  UNL1        0.0044
     19 C         -14.0394  -14.1882   33.2252 C.3     1  UNL1        0.0044
     20 C         -11.9433  -14.4100   34.5616 C.3     1  UNL1        0.0044
     21 N          -7.4684   -6.6107   30.5332 N.pl3   1  UNL1       -0.2988
     22 C          -6.6640   -6.4373   31.7489 C.3     1  UNL1        0.1084
     23 C          -5.5819   -7.5175   31.8247 C.3     1  UNL1        0.0941
     24 N          -4.6906   -7.4880   30.6387 N.3     1  UNL1       -0.2647
     25 C          -5.3861   -7.1891   29.3563 C.3     1  UNL1        0.0941
     26 C          -6.9075   -7.3846   29.4195 C.3     1  UNL1        0.1084
     27 C          -3.8835   -8.7227   30.5442 C.3     1  UNL1        0.1200
     28 C          -4.7603   -9.9424   30.6108 C.ar    1  UNL1        0.0885
     29 N          -5.1608  -10.4921   31.7756 N.ar    1  UNL1       -0.2273
     30 C          -5.9962  -11.4857   31.4085 C.ar    1  UNL1        0.1780
     31 N          -6.1384  -11.5806   30.0709 N.ar    1  UNL1       -0.3128
     32 C          -5.3584  -10.6085   29.5533 C.ar    1  UNL1        0.0537
     33 C          -5.2827  -10.2332   28.1009 C.3     1  UNL1        0.0514
     34 C          -7.0565  -12.4824   29.3731 C.3     1  UNL1        0.1073
     35 C          -8.5028  -12.1297   29.7015 C.3     1  UNL1        0.0265
     36 C         -13.8560   -6.6638   32.4135 C.3     1  UNL1        0.0117
     37 C         -13.4661   -7.5235   31.2137 C.3     1  UNL1        0.0989
@<TRIPOS>BOND
     1    36    37    1
     2    37     1    1
     3     1     2   ar
     4     2    11    1
     5    11    12   ar
     6    12    13   ar
     7    13    14   ar
     8    14    17    1
     9    17    18    1
    10    17    19    1
    11    17    20    1
    12    14    15   ar
    13    15    16   ar
    14     2     3   ar
    15     3     4   ar
    16     4     5   ar
    17     5    21    1
    18    21    22    1
    19    22    23    1
    20    23    24    1
    21    24    27    1
    22    27    28    1
    23    28    29   ar
    24    29    30   ar
    25    30    31   ar
    26    31    34    1
    27    34    35    1
    28    31    32   ar
    29    32    33    1
    30    24    25    1
    31    25    26    1
    32     5     6   ar
    33     6     7   ar
    34     7     8   ar
    35     8     9   ar
    36     9     1   ar
    37    16    11   ar
    38     9     4   ar
    39    26    21    1
    40    32    28   ar
    41     3    10    1
@<TRIPOS>MOLECULE
*****
 37 41 0 0 0
SMALL
GASTEIGER

@<TRIPOS>ATOM
      1 C         -12.0725   -7.5005   30.8423 C.ar    1  UNL1        0.2250
      2 C         -11.2654   -8.6299   30.9963 C.ar    1  UNL1        0.1212
      3 N          -9.9833   -8.3173   30.6923 N.ar    1  UNL1       -0.2945
      4 C         -10.0348   -7.0172   30.3396 C.ar    1  UNL1        0.3119
      5 C          -8.9414   -6.2222   29.9587 C.ar    1  UNL1        0.1317
      6 C          -9.2037   -4.8626   29.6858 C.ar    1  UNL1        0.0286
      7 C         -10.5064   -4.3470   29.7971 C.ar    1  UNL1        0.0777
      8 C         -11.5539   -5.1912   30.1820 C.ar    1  UNL1        0.2963
      9 N         -11.2732   -6.4980   30.4299 N.ar    1  UNL1       -0.1314
     10 H          -9.1940   -8.9051   30.7221 H       1  UNL1        0.1718
     11 C         -11.6570   -9.9703   31.4834 C.ar    1  UNL1        0.0212
     12 C         -12.1100  -10.1202   32.8001 C.ar    1  UNL1        0.0013
     13 C         -12.4677  -11.3779   33.2931 C.ar    1  UNL1       -0.0042
     14 C         -12.3689  -12.5324   32.4817 C.ar    1  UNL1       -0.0228
     15 C         -11.8854  -12.3673   31.1651 C.ar    1  UNL1       -0.0042
     16 C         -11.5297  -11.1079   30.6771 C.ar    1  UNL1        0.0013
     17 C         -12.7513  -13.9407   32.9824 C.3     1  UNL1        0.0189
     18 C         -14.2850  -14.1084   32.9237 C.3     1  UNL1        0.0044
     19 C         -12.2713  -14.1176   34.4396 C.3     1  UNL1        0.0044
     20 C         -12.1210  -15.0761   32.1401 C.3     1  UNL1        0.0044
     21 N          -7.6052   -6.7596   29.8512 N.pl3   1  UNL1       -0.2988
     22 C          -6.4395   -5.9363   30.1953 C.3     1  UNL1        0.1084
     23 C          -5.2780   -6.8268   30.6441 C.3     1  UNL1        0.0941
     24 N          -4.8958   -7.8036   29.5945 N.3     1  UNL1       -0.2647
     25 C          -6.0453   -8.3688   28.8350 C.3     1  UNL1        0.0941
     26 C          -7.3995   -8.1772   29.5325 C.3     1  UNL1        0.1084
     27 C          -4.0308   -8.8691   30.1435 C.3     1  UNL1        0.1200
     28 C          -4.8532   -9.9362   30.8111 C.ar    1  UNL1        0.0885
     29 N          -4.7947  -11.2353   30.4531 N.ar    1  UNL1       -0.2273
     30 C          -5.5910  -11.8649   31.3416 C.ar    1  UNL1        0.1780
     31 N          -6.1414  -11.0214   32.2384 N.ar    1  UNL1       -0.3128
     32 C          -5.6827   -9.7950   31.9119 C.ar    1  UNL1        0.0537
     33 C          -5.9175   -8.5386   32.7008 C.3     1  UNL1        0.0514
     34 C          -6.9590  -11.4139   33.3876 C.3     1  UNL1        0.1073
     35 C          -8.4411  -11.3300   33.0411 C.3     1  UNL1        0.0265
     36 C         -13.7429   -6.6040   32.4761 C.3     1  UNL1        0.0117
     37 C         -13.5377   -7.3547   31.1627 C.3     1  UNL1        0.0989
@<TRIPOS>BOND
     1    36    37    1
     2    37     1    1
     3     1     2   ar
     4     2    11    1
     5    11    12   ar
     6    12    13   ar
     7    13    14   ar
     8    14    17    1
     9    17    18    1
    10    17    19    1
    11    17    20    1
    12    14    15   ar
    13    15    16   ar
    14     2     3   ar
    15     3     4   ar
    16     4     5   ar
    17     5    21    1
    18    21    22    1
    19    22    23    1
    20    23    24    1
    21    24    27    1
    22    27    28    1
    23    28    29   ar
    24    29    30   ar
    25    30    31   ar
    26    31    34    1
    27    34    35    1
    28    31    32   ar
    29    32    33    1
    30    24    25    1
    31    25    26    1
    32     5     6   ar
    33     6     7   ar
    34     7     8   ar
    35     8     9   ar
    36     9     1   ar
    37    16    11   ar
    38     9     4   ar
    39    26    21    1
    40    32    28   ar
    41     3    10    1
@<TRIPOS>MOLECULE
*****
 37 41 0 0 0
SMALL
GASTEIGER

@<TRIPOS>ATOM
      1 C         -11.0717  -13.1136   31.1380 C.ar    1  UNL1        0.2250
      2 C         -10.1911  -12.5763   30.1965 C.ar    1  UNL1        0.1212
      3 N         -10.2404  -11.2239   30.2478 N.ar    1  UNL1       -0.2945
      4 C         -11.1601  -10.9625   31.1981 C.ar    1  UNL1        0.3119
      5 C         -11.5519   -9.6875   31.6379 C.ar    1  UNL1        0.1317
      6 C         -12.4906   -9.6347   32.6906 C.ar    1  UNL1        0.0286
      7 C         -12.9969  -10.8156   33.2599 C.ar    1  UNL1        0.0777
      8 C         -12.5660  -12.0563   32.7772 C.ar    1  UNL1        0.2963
      9 N         -11.6682  -12.0766   31.7568 N.ar    1  UNL1       -0.1314
     10 H          -9.7228  -10.5791   29.7134 H       1  UNL1        0.1718
     11 C          -9.2615  -13.2989   29.3016 C.ar    1  UNL1        0.0212
     12 C          -7.9193  -12.9039   29.2375 C.ar    1  UNL1        0.0013
     13 C          -7.0233  -13.5559   28.3861 C.ar    1  UNL1       -0.0042
     14 C          -7.4500  -14.6206   27.5583 C.ar    1  UNL1       -0.0228
     15 C          -8.8122  -14.9889   27.6160 C.ar    1  UNL1       -0.0042
     16 C          -9.7035  -14.3343   28.4691 C.ar    1  UNL1        0.0013
     17 C          -6.4979  -15.3691   26.6026 C.3     1  UNL1        0.0189
     18 C          -7.2459  -15.7128   25.2964 C.3     1  UNL1        0.0044
     19 C          -6.0131  -16.6726   27.2743 C.3     1  UNL1        0.0044
     20 C          -5.2449  -14.5429   26.2241 C.3     1  UNL1        0.0044
     21 N         -11.0230   -8.4791   31.0498 N.pl3   1  UNL1       -0.2988
     22 C         -11.8530   -7.2725   30.9491 C.3     1  UNL1        0.1084
     23 C         -10.9692   -6.0226   30.9416 C.3     1  UNL1        0.0941
     24 N          -9.9960   -6.0432   29.8216 N.3     1  UNL1       -0.2647
     25 C          -9.4247   -7.3872   29.5305 C.3     1  UNL1        0.0941
     26 C          -9.6070   -8.3958   30.6734 C.3     1  UNL1        0.1084
     27 C          -8.9354   -5.0321   30.0147 C.3     1  UNL1        0.1200
     28 C          -7.9175   -5.5074   31.0141 C.ar    1  UNL1        0.0885
     29 N          -8.2365   -5.8349   32.2832 N.ar    1  UNL1       -0.2273
     30 C          -7.0841   -6.2971   32.8107 C.ar    1  UNL1        0.1780
     31 N          -6.0622   -6.2764   31.9311 N.ar    1  UNL1       -0.3128
     32 C          -6.5771   -5.7762   30.7884 C.ar    1  UNL1        0.0537
     33 C          -5.8528   -5.6778   29.4762 C.3     1  UNL1        0.0514
     34 C          -4.7211   -6.8130   32.1697 C.3     1  UNL1        0.1073
     35 C          -4.6833   -7.5904   33.4804 C.3     1  UNL1        0.0265
     36 C         -12.6566  -14.7911   32.1061 C.3     1  UNL1        0.0117
     37 C         -11.2739  -14.5621   31.5008 C.3     1  UNL1        0.0989
@<TRIPOS>BOND
     1    36    37    1
     2    37     1    1
     3     1     2   ar
     4     2    11    1
     5    11    12   ar
     6    12    13   ar
     7    13    14   ar
     8    14    17    1
     9    17    18    1
    10    17    19    1
    11    17    20    1
    12    14    15   ar
    13    15    16   ar
    14     2     3   ar
    15     3     4   ar
    16     4     5   ar
    17     5    21    1
    18    21    22    1
    19    22    23    1
    20    23    24    1
    21    24    27    1
    22    27    28    1
    23    28    29   ar
    24    29    30   ar
    25    30    31   ar
    26    31    34    1
    27    34    35    1
    28    31    32   ar
    29    32    33    1
    30    24    25    1
    31    25    26    1
    32     5     6   ar
    33     6     7   ar
    34     7     8   ar
    35     8     9   ar
    36     9     1   ar
    37    16    11   ar
    38     9     4   ar
    39    26    21    1
    40    32    28   ar
    41     3    10    1
@<TRIPOS>MOLECULE
*****
 37 41 0 0 0
SMALL
GASTEIGER

@<TRIPOS>ATOM
      1 C          -6.4152  -14.3995   27.2344 C.ar    1  UNL1        0.2250
      2 C          -7.7631  -14.7559   27.3175 C.ar    1  UNL1        0.1212
      3 N          -8.4034  -13.9176   28.1668 N.ar    1  UNL1       -0.2945
      4 C          -7.4364  -13.0844   28.6004 C.ar    1  UNL1        0.3119
      5 C          -7.6103  -12.0117   29.4902 C.ar    1  UNL1        0.1317
      6 C          -6.4744  -11.2218   29.7692 C.ar    1  UNL1        0.0286
      7 C          -5.2354  -11.5113   29.1724 C.ar    1  UNL1        0.0777
      8 C          -5.1273  -12.5945   28.2932 C.ar    1  UNL1        0.2963
      9 N          -6.2357  -13.3430   28.0502 N.ar    1  UNL1       -0.1314
     10 H          -9.3570  -13.9169   28.4116 H       1  UNL1        0.1718
     11 C          -8.4728  -15.8173   26.5712 C.ar    1  UNL1        0.0212
     12 C          -8.8911  -15.5741   25.2569 C.ar    1  UNL1        0.0013
     13 C          -9.5811  -16.5517   24.5350 C.ar    1  UNL1       -0.0042
     14 C          -9.8868  -17.8047   25.1159 C.ar    1  UNL1       -0.0228
     15 C          -9.4809  -18.0237   26.4508 C.ar    1  UNL1       -0.0042
     16 C          -8.7910  -17.0435   27.1676 C.ar    1  UNL1        0.0013
     17 C         -10.6467  -18.9135   24.3586 C.3     1  UNL1        0.0189
     18 C         -12.1638  -18.7501   24.5943 C.3     1  UNL1        0.0044
     19 C         -10.1930  -20.2957   24.8770 C.3     1  UNL1        0.0044
     20 C         -10.4016  -18.8824   22.8306 C.3     1  UNL1        0.0044
     21 N          -8.8885  -11.7189   30.0955 N.pl3   1  UNL1       -0.2988
     22 C          -9.2991  -12.3905   31.3345 C.3     1  UNL1        0.1084
     23 C         -10.2796  -11.5094   32.1129 C.3     1  UNL1        0.0941
     24 N         -11.4839  -11.1833   31.3096 N.3     1  UNL1       -0.2647
     25 C         -11.2099  -10.9351   29.8670 C.3     1  UNL1        0.0941
     26 C          -9.7338  -10.6452   29.5604 C.3     1  UNL1        0.1084
     27 C         -12.2483  -10.0732   31.9163 C.3     1  UNL1        0.1200
     28 C         -11.5099   -8.7715   31.7703 C.ar    1  UNL1        0.0885
     29 N         -10.1754   -8.6655   31.9356 N.ar    1  UNL1       -0.2273
     30 C          -9.8995   -7.3818   31.6259 C.ar    1  UNL1        0.1780
     31 N         -10.9972   -6.6826   31.2728 N.ar    1  UNL1       -0.3128
     32 C         -12.0254   -7.5521   31.3619 C.ar    1  UNL1        0.0537
     33 C         -13.4410   -7.2730   30.9442 C.3     1  UNL1        0.0514
     34 C         -11.0077   -5.3041   30.7799 C.3     1  UNL1        0.1073
     35 C          -9.9080   -5.0997   29.7443 C.3     1  UNL1        0.0265
     36 C          -5.7085  -14.8049   24.8680 C.3     1  UNL1        0.0117
     37 C          -5.3523  -14.9858   26.3415 C.3     1  UNL1        0.0989
@<TRIPOS>BOND
     1    36    37    1
     2    37     1    1
     3     1     2   ar
     4     2    11    1
     5    11    12   ar
     6    12    13   ar
     7    13    14   ar
     8    14    17    1
     9    17    18    1
    10    17    19    1
    11    17    20    1
    12    14    15   ar
    13    15    16   ar
    14     2     3   ar
    15     3     4   ar
    16     4     5   ar
    17     5    21    1
    18    21    22    1
    19    22    23    1
    20    23    24    1
    21    24    27    1
    22    27    28    1
    23    28    29   ar
    24    29    30   ar
    25    30    31   ar
    26    31    34    1
    27    34    35    1
    28    31    32   ar
    29    32    33    1
    30    24    25    1
    31    25    26    1
    32     5     6   ar
    33     6     7   ar
    34     7     8   ar
    35     8     9   ar
    36     9     1   ar
    37    16    11   ar
    38     9     4   ar
    39    26    21    1
    40    32    28   ar
    41     3    10    1
@<TRIPOS>MOLECULE
*****
 37 41 0 0 0
SMALL
GASTEIGER

@<TRIPOS>ATOM
      1 C          -7.5076  -10.5604   30.8179 C.ar    1  UNL1        0.2250
      2 C          -8.2411  -11.7321   30.6183 C.ar    1  UNL1        0.1212
      3 N          -7.6807  -12.4545   29.6191 N.ar    1  UNL1       -0.2945
      4 C          -6.6356  -11.7049   29.2154 C.ar    1  UNL1        0.3119
      5 C          -5.7199  -12.0428   28.2054 C.ar    1  UNL1        0.1317
      6 C          -4.6573  -11.1421   27.9782 C.ar    1  UNL1        0.0286
      7 C          -4.5381   -9.9669   28.7396 C.ar    1  UNL1        0.0777
      8 C          -5.4834   -9.6871   29.7327 C.ar    1  UNL1        0.2963
      9 N          -6.5009  -10.5681   29.9232 N.ar    1  UNL1       -0.1314
     10 H          -7.9704  -13.3274   29.2680 H       1  UNL1        0.1718
     11 C          -9.4094  -12.2175   31.3840 C.ar    1  UNL1        0.0212
     12 C          -9.3892  -12.1594   32.7832 C.ar    1  UNL1        0.0013
     13 C         -10.4710  -12.6292   33.5329 C.ar    1  UNL1       -0.0042
     14 C         -11.6066  -13.1874   32.9005 C.ar    1  UNL1       -0.0228
     15 C         -11.5994  -13.2626   31.4902 C.ar    1  UNL1       -0.0042
     16 C         -10.5159  -12.7910   30.7457 C.ar    1  UNL1        0.0013
     17 C         -12.8232  -13.7193   33.6860 C.3     1  UNL1        0.0189
     18 C         -13.5241  -14.8220   32.8634 C.3     1  UNL1        0.0044
     19 C         -13.8148  -12.5640   33.9449 C.3     1  UNL1        0.0044
     20 C         -12.4418  -14.3260   35.0579 C.3     1  UNL1        0.0044
     21 N          -5.8478  -13.2550   27.4308 N.pl3   1  UNL1       -0.2988
     22 C          -6.8338  -14.2773   27.8016 C.3     1  UNL1        0.1084
     23 C          -7.2529  -15.0794   26.5668 C.3     1  UNL1        0.0941
     24 N          -6.0912  -15.7324   25.9142 N.3     1  UNL1       -0.2647
     25 C          -4.8492  -14.9108   25.9087 C.3     1  UNL1        0.0941
     26 C          -5.0945  -13.4201   26.1822 C.3     1  UNL1        0.1084
     27 C          -6.4354  -16.2058   24.5569 C.3     1  UNL1        0.1200
     28 C          -5.1961  -16.5583   23.7820 C.ar    1  UNL1        0.0885
     29 N          -4.3065  -17.4797   24.2054 N.ar    1  UNL1       -0.2273
     30 C          -3.4119  -17.5701   23.1996 C.ar    1  UNL1        0.1780
     31 N          -3.7021  -16.7515   22.1680 N.ar    1  UNL1       -0.3128
     32 C          -4.8304  -16.1031   22.5255 C.ar    1  UNL1        0.0537
     33 C          -5.6166  -15.1732   21.6462 C.3     1  UNL1        0.0514
     34 C          -2.9862  -16.7017   20.8919 C.3     1  UNL1        0.1073
     35 C          -1.4804  -16.7577   21.1228 C.3     1  UNL1        0.0265
     36 C          -8.7162   -8.4591   31.4402 C.3     1  UNL1        0.0117
     37 C          -7.7028   -9.5118   31.8824 C.3     1  UNL1        0.0989
@<TRIPOS>BOND
     1    36    37    1
     2    37     1    1
     3     1     2   ar
     4     2    11    1
     5    11    12   ar
     6    12    13   ar
     7    13    14   ar
     8    14    17    1
     9    17    18    1
    10    17    19    1
    11    17    20    1
    12    14    15   ar
    13    15    16   ar
    14     2     3   ar
    15     3     4   ar
    16     4     5   ar
    17     5    21    1
    18    21    22    1
    19    22    23    1
    20    23    24    1
    21    24    27    1
    22    27    28    1
    23    28    29   ar
    24    29    30   ar
    25    30    31   ar
    26    31    34    1
    27    34    35    1
    28    31    32   ar
    29    32    33    1
    30    24    25    1
    31    25    26    1
    32     5     6   ar
    33     6     7   ar
    34     7     8   ar
    35     8     9   ar
    36     9     1   ar
    37    16    11   ar
    38     9     4   ar
    39    26    21    1
    40    32    28   ar
    41     3    10    1
