@<TRIPOS>MOLECULE
*****
 46 52 0 0 0
SMALL
GASTEIGER

@<TRIPOS>ATOM
      1 C          -6.2159   -9.0145   30.2285 C.3     1  UNL1        0.0886
      2 C          -7.1412   -9.7767   31.0989 C.ar    1  UNL1       -0.0113
      3 C          -8.5043   -9.5392   31.2802 C.ar    1  UNL1       -0.0033
      4 C          -9.2247  -10.3729   32.1440 C.ar    1  UNL1       -0.0003
      5 C          -8.5699  -11.4056   32.8537 C.ar    1  UNL1       -0.0002
      6 C          -7.2048  -11.6597   32.5998 C.ar    1  UNL1       -0.0045
      7 C          -6.5183  -10.8406   31.7013 C.ar    1  UNL1       -0.0244
      8 C          -5.0868  -10.9465   31.3173 C.3     1  UNL1        0.0351
      9 C          -4.8282   -9.6685   30.4757 C.3     1  UNL1        0.0808
     10 C          -5.2407   -6.8639   31.1582 C.3     1  UNL1        0.1159
     11 N          -5.5143   -5.5430   31.2950 N.3     1  UNL1       -0.2851
     12 C          -6.7327   -5.4231   30.7483 C.3     1  UNL1        0.0910
     13 C          -7.4968   -4.2696   30.6712 C.3     1  UNL1        0.1018
     14 C          -8.7836   -4.3830   30.1279 C.3     1  UNL1        0.3136
     15 N          -9.2641   -5.5963   29.6875 N.am    1  UNL1       -0.1293
     16 C          -8.4686   -6.7225   29.7270 C.2     1  UNL1        0.4047
     17 O          -8.9008   -7.8158   29.2835 O.2     1  UNL1       -0.2174
     18 C          -7.1815   -6.6244   30.2880 C.3     1  UNL1        0.2039
     19 N          -6.2319   -7.5664   30.5318 N.3     1  UNL1       -0.2469
     20 H          -4.8313   -4.9745   30.7943 H       1  UNL1        0.1244
     21 C          -3.8573   -7.3577   33.1777 C.3     1  UNL1        0.0029
     22 C          -3.9477   -7.4470   31.6582 C.3     1  UNL1        0.0326
     23 C         -10.6628   -5.6826   29.2287 C.3     1  UNL1        0.3404
     24 C         -11.5036   -6.5232   30.1662 C.ar    1  UNL1        0.0640
     25 C         -12.1247   -5.8927   31.2592 C.ar    1  UNL1        0.0031
     26 C         -12.8594   -6.6348   32.1866 C.ar    1  UNL1       -0.0001
     27 C         -12.9846   -8.0158   32.0367 C.ar    1  UNL1        0.0007
     28 C         -12.3830   -8.6588   30.9536 C.ar    1  UNL1        0.0102
     29 C         -11.6456   -7.9254   30.0125 C.ar    1  UNL1        0.0710
     30 C         -11.0528   -8.6380   28.9061 C.1     1  UNL1        0.1003
     31 N         -10.5802   -9.2108   28.0185 N.1     1  UNL1       -0.1908
     32 C          -9.3024  -12.2082   33.8640 C.ar    1  UNL1        0.0030
     33 C          -8.6774  -12.4524   35.1011 C.ar    1  UNL1        0.0001
     34 C          -9.2905  -13.2534   36.0646 C.ar    1  UNL1        0.0000
     35 C         -10.5335  -13.8271   35.8080 C.ar    1  UNL1        0.0001
     36 C         -11.1756  -13.5915   34.5919 C.ar    1  UNL1        0.0031
     37 C         -10.5869  -12.7706   33.6133 C.ar    1  UNL1        0.0371
     38 C         -11.3501  -12.5270   32.3642 C.ar    1  UNL1        0.1806
     39 N         -12.6216  -12.0836   32.3307 N.ar    1  UNL1       -0.1084
     40 N         -12.9239  -11.9985   31.0428 N.ar    1  UNL1       -0.0229
     41 N         -11.8836  -12.3638   30.3098 N.ar    1  UNL1       -0.0464
     42 N         -10.8874  -12.6904   31.1124 N.ar    1  UNL1       -0.2388
     43 H          -9.9374  -12.9850   30.7981 H       1  UNL1        0.1923
     44 C          -4.1135   -9.9765   29.1756 C.2     1  UNL1        0.1526
     45 C          -4.7081   -9.5982   27.8511 C.3     1  UNL1        0.0723
     46 O          -3.0354  -10.5525   29.1952 O.2     1  UNL1       -0.2960
@<TRIPOS>BOND
     1    21    22    1
     2    22    10    1
     3    10    11    1
     4    11    12    1
     5    12    13    1
     6    13    14    1
     7    14    15    1
     8    15    23    1
     9    23    24    1
    10    24    25   ar
    11    25    26   ar
    12    26    27   ar
    13    27    28   ar
    14    28    29   ar
    15    29    30    1
    16    30    31    3
    17    15    16    1
    18    16    17    2
    19    16    18    1
    20    18    19    1
    21    19     1    1
    22     1     2    1
    23     2     3   ar
    24     3     4   ar
    25     4     5   ar
    26     5    32    1
    27    32    33   ar
    28    33    34   ar
    29    34    35   ar
    30    35    36   ar
    31    36    37   ar
    32    37    38    1
    33    38    39   ar
    34    39    40   ar
    35    40    41   ar
    36    41    42   ar
    37     5     6   ar
    38     6     7   ar
    39     7     8    1
    40     8     9    1
    41     9    44    1
    42    44    45    1
    43    44    46    2
    44    19    10    1
    45     9     1    1
    46    18    12    1
    47     7     2   ar
    48    29    24   ar
    49    37    32   ar
    50    42    38   ar
    51    42    43    1
    52    11    20    1
@<TRIPOS>MOLECULE
*****
 46 52 0 0 0
SMALL
GASTEIGER

@<TRIPOS>ATOM
      1 C          -5.9475  -10.6029   30.4972 C.3     1  UNL1        0.0886
      2 C          -7.3531  -11.0252   30.6984 C.ar    1  UNL1       -0.0113
      3 C          -8.3665  -11.0408   29.7393 C.ar    1  UNL1       -0.0033
      4 C          -9.6418  -11.4809   30.1134 C.ar    1  UNL1       -0.0003
      5 C          -9.9058  -11.8569   31.4504 C.ar    1  UNL1       -0.0002
      6 C          -8.8446  -11.8904   32.3805 C.ar    1  UNL1       -0.0045
      7 C          -7.5718  -11.4872   31.9718 C.ar    1  UNL1       -0.0244
      8 C          -6.3425  -11.4448   32.8054 C.3     1  UNL1        0.0351
      9 C          -5.3039  -10.7227   31.9065 C.3     1  UNL1        0.0808
     10 C          -4.9304   -8.8061   29.0215 C.3     1  UNL1        0.1159
     11 N          -5.0830   -7.5057   28.6692 N.3     1  UNL1       -0.2851
     12 C          -6.1294   -7.1080   29.4073 C.3     1  UNL1        0.0910
     13 C          -6.6731   -5.8342   29.4559 C.3     1  UNL1        0.1018
     14 C          -7.7206   -5.6137   30.3603 C.3     1  UNL1        0.3136
     15 N          -8.1885   -6.6281   31.1660 N.am    1  UNL1       -0.1293
     16 C          -7.6670   -7.9011   31.0660 C.2     1  UNL1        0.4047
     17 O          -8.1297   -8.8297   31.7749 O.2     1  UNL1       -0.2174
     18 C          -6.6020   -8.1298   30.1747 C.3     1  UNL1        0.2039
     19 N          -5.8512   -9.2377   29.9349 N.3     1  UNL1       -0.2469
     20 H          -5.2839   -7.4180   27.6731 H       1  UNL1        0.1244
     21 C          -4.3259  -10.3705   27.1713 C.3     1  UNL1        0.0029
     22 C          -3.8391   -9.6514   28.4247 C.3     1  UNL1        0.0326
     23 C          -9.2146   -6.3160   32.1779 C.3     1  UNL1        0.3404
     24 C         -10.5575   -6.9097   31.8080 C.ar    1  UNL1        0.0640
     25 C         -10.9210   -8.1483   32.3662 C.ar    1  UNL1        0.0031
     26 C         -12.1213   -8.7662   32.0085 C.ar    1  UNL1       -0.0001
     27 C         -12.9754   -8.1574   31.0892 C.ar    1  UNL1        0.0007
     28 C         -12.6367   -6.9238   30.5309 C.ar    1  UNL1        0.0102
     29 C         -11.4363   -6.2900   30.8840 C.ar    1  UNL1        0.0710
     30 C         -11.1392   -5.0109   30.2850 C.1     1  UNL1        0.1003
     31 N         -10.8986   -3.9849   29.8067 N.1     1  UNL1       -0.1908
     32 C         -11.2839  -12.2017   31.8788 C.ar    1  UNL1        0.0030
     33 C         -12.3226  -12.0874   30.9360 C.ar    1  UNL1        0.0001
     34 C         -13.6463  -12.3361   31.2988 C.ar    1  UNL1        0.0000
     35 C         -13.9556  -12.6979   32.6079 C.ar    1  UNL1        0.0001
     36 C         -12.9411  -12.8259   33.5570 C.ar    1  UNL1        0.0031
     37 C         -11.5968  -12.6005   33.2099 C.ar    1  UNL1        0.0371
     38 C         -10.5680  -12.8020   34.2602 C.ar    1  UNL1        0.1806
     39 N         -10.3942  -13.9545   34.9354 N.ar    1  UNL1       -0.1084
     40 N          -9.3880  -13.7198   35.7660 N.ar    1  UNL1       -0.0229
     41 N          -8.9510  -12.4802   35.6068 N.ar    1  UNL1       -0.0464
     42 N          -9.6670  -11.8908   34.6671 N.ar    1  UNL1       -0.2388
     43 H          -9.5144  -10.9194   34.3191 H       1  UNL1        0.1923
     44 C          -3.9808  -11.4596   31.8583 C.2     1  UNL1        0.1526
     45 C          -3.2446  -11.8218   33.1144 C.3     1  UNL1        0.0723
     46 O          -3.4906  -11.7609   30.7797 O.2     1  UNL1       -0.2960
@<TRIPOS>BOND
     1    21    22    1
     2    22    10    1
     3    10    11    1
     4    11    12    1
     5    12    13    1
     6    13    14    1
     7    14    15    1
     8    15    23    1
     9    23    24    1
    10    24    25   ar
    11    25    26   ar
    12    26    27   ar
    13    27    28   ar
    14    28    29   ar
    15    29    30    1
    16    30    31    3
    17    15    16    1
    18    16    17    2
    19    16    18    1
    20    18    19    1
    21    19     1    1
    22     1     2    1
    23     2     3   ar
    24     3     4   ar
    25     4     5   ar
    26     5    32    1
    27    32    33   ar
    28    33    34   ar
    29    34    35   ar
    30    35    36   ar
    31    36    37   ar
    32    37    38    1
    33    38    39   ar
    34    39    40   ar
    35    40    41   ar
    36    41    42   ar
    37     5     6   ar
    38     6     7   ar
    39     7     8    1
    40     8     9    1
    41     9    44    1
    42    44    45    1
    43    44    46    2
    44    19    10    1
    45     9     1    1
    46    18    12    1
    47     7     2   ar
    48    29    24   ar
    49    37    32   ar
    50    42    38   ar
    51    42    43    1
    52    11    20    1
@<TRIPOS>MOLECULE
*****
 46 52 0 0 0
SMALL
GASTEIGER

@<TRIPOS>ATOM
      1 C         -10.4833   -8.5248   30.6487 C.3     1  UNL1        0.0886
      2 C         -11.0575   -9.6737   31.3869 C.ar    1  UNL1       -0.0113
      3 C         -11.6793   -9.6382   32.6356 C.ar    1  UNL1       -0.0033
      4 C         -12.1702  -10.8318   33.1783 C.ar    1  UNL1       -0.0003
      5 C         -11.9951  -12.0554   32.4922 C.ar    1  UNL1       -0.0002
      6 C         -11.4192  -12.0481   31.2035 C.ar    1  UNL1       -0.0045
      7 C         -10.9760  -10.8382   30.6658 C.ar    1  UNL1       -0.0244
      8 C         -10.3394  -10.6355   29.3385 C.3     1  UNL1        0.0351
      9 C          -9.8673   -9.1576   29.3701 C.3     1  UNL1        0.0808
     10 C          -9.6849   -6.5648   32.0493 C.3     1  UNL1        0.1159
     11 N          -8.6085   -6.1220   32.7447 N.3     1  UNL1       -0.2851
     12 C          -7.7037   -7.0948   32.5629 C.3     1  UNL1        0.0910
     13 C          -6.4008   -7.1136   33.0346 C.3     1  UNL1        0.1018
     14 C          -5.5944   -8.1967   32.6599 C.3     1  UNL1        0.3136
     15 N          -6.0839   -9.2016   31.8551 N.am    1  UNL1       -0.1293
     16 C          -7.3985   -9.1890   31.4378 C.2     1  UNL1        0.4047
     17 O          -7.8476  -10.1320   30.7393 O.2     1  UNL1       -0.2174
     18 C          -8.2123   -8.0967   31.7924 C.3     1  UNL1        0.2039
     19 N          -9.4921   -7.7820   31.4580 N.3     1  UNL1       -0.2469
     20 H          -8.8325   -6.0113   33.7336 H       1  UNL1        0.1244
     21 C         -11.0224   -4.9654   30.6747 C.3     1  UNL1        0.0029
     22 C         -10.9509   -5.7563   31.9764 C.3     1  UNL1        0.0326
     23 C          -5.1630  -10.2590   31.3990 C.3     1  UNL1        0.3404
     24 C          -4.8189  -10.1008   29.9330 C.ar    1  UNL1        0.0640
     25 C          -3.8649   -9.1343   29.5675 C.ar    1  UNL1        0.0031
     26 C          -3.5588   -8.9079   28.2238 C.ar    1  UNL1       -0.0001
     27 C          -4.2001   -9.6421   27.2262 C.ar    1  UNL1        0.0007
     28 C          -5.1434  -10.6120   27.5692 C.ar    1  UNL1        0.0102
     29 C          -5.4576  -10.8528   28.9148 C.ar    1  UNL1        0.0710
     30 C          -6.4326  -11.8739   29.2147 C.1     1  UNL1        0.1003
     31 N          -7.2136  -12.6941   29.4525 N.1     1  UNL1       -0.1908
     32 C         -12.3997  -13.3371   33.1208 C.ar    1  UNL1        0.0030
     33 C         -13.5683  -13.9678   32.6548 C.ar    1  UNL1        0.0001
     34 C         -14.0324  -15.1406   33.2505 C.ar    1  UNL1        0.0000
     35 C         -13.3415  -15.7001   34.3227 C.ar    1  UNL1        0.0001
     36 C         -12.1758  -15.0969   34.7957 C.ar    1  UNL1        0.0031
     37 C         -11.6770  -13.9255   34.1980 C.ar    1  UNL1        0.0371
     38 C         -10.4064  -13.3676   34.7239 C.ar    1  UNL1        0.1806
     39 N          -9.6799  -12.4227   34.0965 N.ar    1  UNL1       -0.1084
     40 N          -8.6392  -12.2047   34.8881 N.ar    1  UNL1       -0.0229
     41 N          -8.7210  -12.9733   35.9631 N.ar    1  UNL1       -0.0464
     42 N          -9.8193  -13.7018   35.8864 N.ar    1  UNL1       -0.2388
     43 H         -10.1455  -14.3717   36.6165 H       1  UNL1        0.1923
     44 C         -10.2713   -8.4027   28.1200 C.2     1  UNL1        0.1526
     45 C         -10.2237   -6.9042   28.0652 C.3     1  UNL1        0.0723
     46 O         -10.6539   -9.0170   27.1347 O.2     1  UNL1       -0.2960
@<TRIPOS>BOND
     1    21    22    1
     2    22    10    1
     3    10    11    1
     4    11    12    1
     5    12    13    1
     6    13    14    1
     7    14    15    1
     8    15    23    1
     9    23    24    1
    10    24    25   ar
    11    25    26   ar
    12    26    27   ar
    13    27    28   ar
    14    28    29   ar
    15    29    30    1
    16    30    31    3
    17    15    16    1
    18    16    17    2
    19    16    18    1
    20    18    19    1
    21    19     1    1
    22     1     2    1
    23     2     3   ar
    24     3     4   ar
    25     4     5   ar
    26     5    32    1
    27    32    33   ar
    28    33    34   ar
    29    34    35   ar
    30    35    36   ar
    31    36    37   ar
    32    37    38    1
    33    38    39   ar
    34    39    40   ar
    35    40    41   ar
    36    41    42   ar
    37     5     6   ar
    38     6     7   ar
    39     7     8    1
    40     8     9    1
    41     9    44    1
    42    44    45    1
    43    44    46    2
    44    19    10    1
    45     9     1    1
    46    18    12    1
    47     7     2   ar
    48    29    24   ar
    49    37    32   ar
    50    42    38   ar
    51    42    43    1
    52    11    20    1
@<TRIPOS>MOLECULE
*****
 46 52 0 0 0
SMALL
GASTEIGER

@<TRIPOS>ATOM
      1 C          -6.6221  -10.2326   29.6980 C.3     1  UNL1        0.0886
      2 C          -7.9387  -10.6337   30.2459 C.ar    1  UNL1       -0.0113
      3 C          -8.8901   -9.7976   30.8314 C.ar    1  UNL1       -0.0033
      4 C         -10.0885  -10.3575   31.2902 C.ar    1  UNL1       -0.0003
      5 C         -10.3069  -11.7516   31.2029 C.ar    1  UNL1       -0.0002
      6 C          -9.3529  -12.5601   30.5483 C.ar    1  UNL1       -0.0045
      7 C          -8.1846  -11.9710   30.0611 C.ar    1  UNL1       -0.0244
      8 C          -7.0694  -12.6570   29.3585 C.3     1  UNL1        0.0351
      9 C          -5.9679  -11.5692   29.2505 C.3     1  UNL1        0.0808
     10 C          -4.9396  -10.0504   31.5892 C.3     1  UNL1        0.1159
     11 N          -4.3127   -9.1378   32.3718 N.3     1  UNL1       -0.2851
     12 C          -4.8250   -7.9711   31.9544 C.3     1  UNL1        0.0910
     13 C          -4.5469   -6.7134   32.4657 C.3     1  UNL1        0.1018
     14 C          -5.2571   -5.6289   31.9334 C.3     1  UNL1        0.3136
     15 N          -6.1928   -5.8119   30.9393 N.am    1  UNL1       -0.1293
     16 C          -6.4181   -7.0654   30.4096 C.2     1  UNL1        0.4047
     17 O          -7.2429   -7.2155   29.4736 O.2     1  UNL1       -0.2174
     18 C          -5.7244   -8.1646   30.9494 C.3     1  UNL1        0.2039
     19 N          -5.8071   -9.4966   30.6896 N.3     1  UNL1       -0.2469
     20 H          -3.3031   -9.1657   32.2289 H       1  UNL1        0.1244
     21 C          -3.4764  -11.7672   32.6605 C.3     1  UNL1        0.0029
     22 C          -4.6617  -11.5214   31.7331 C.3     1  UNL1        0.0326
     23 C          -6.9911   -4.6552   30.4932 C.3     1  UNL1        0.3404
     24 C          -8.4703   -4.9779   30.4690 C.ar    1  UNL1        0.0640
     25 C          -9.2543   -4.4575   29.4238 C.ar    1  UNL1        0.0031
     26 C         -10.6334   -4.6755   29.3911 C.ar    1  UNL1       -0.0001
     27 C         -11.2495   -5.4153   30.4003 C.ar    1  UNL1        0.0007
     28 C         -10.4872   -5.9477   31.4413 C.ar    1  UNL1        0.0102
     29 C          -9.1007   -5.7401   31.4847 C.ar    1  UNL1        0.0710
     30 C          -8.3585   -6.3212   32.5776 C.1     1  UNL1        0.1003
     31 N          -7.7642   -6.7849   33.4558 N.1     1  UNL1       -0.1908
     32 C         -11.5183  -12.3641   31.8019 C.ar    1  UNL1        0.0030
     33 C         -12.6679  -12.4882   30.9997 C.ar    1  UNL1        0.0001
     34 C         -13.8548  -12.9971   31.5272 C.ar    1  UNL1        0.0000
     35 C         -13.9153  -13.3855   32.8634 C.ar    1  UNL1        0.0001
     36 C         -12.7855  -13.2795   33.6750 C.ar    1  UNL1        0.0031
     37 C         -11.5719  -12.7890   33.1604 C.ar    1  UNL1        0.0371
     38 C         -10.4002  -12.7498   34.0702 C.ar    1  UNL1        0.1806
     39 N         -10.1742  -13.6469   35.0492 N.ar    1  UNL1       -0.1084
     40 N          -9.0398  -13.2610   35.6162 N.ar    1  UNL1       -0.0229
     41 N          -8.5778  -12.1783   35.0103 N.ar    1  UNL1       -0.0464
     42 N          -9.4058  -11.8453   34.0374 N.ar    1  UNL1       -0.2388
     43 H          -9.2663  -11.0484   33.3790 H       1  UNL1        0.1923
     44 C          -5.3963  -11.4730   27.8506 C.2     1  UNL1        0.1526
     45 C          -4.9389  -10.1611   27.2842 C.3     1  UNL1        0.0723
     46 O          -5.3108  -12.4765   27.1576 O.2     1  UNL1       -0.2960
@<TRIPOS>BOND
     1    21    22    1
     2    22    10    1
     3    10    11    1
     4    11    12    1
     5    12    13    1
     6    13    14    1
     7    14    15    1
     8    15    23    1
     9    23    24    1
    10    24    25   ar
    11    25    26   ar
    12    26    27   ar
    13    27    28   ar
    14    28    29   ar
    15    29    30    1
    16    30    31    3
    17    15    16    1
    18    16    17    2
    19    16    18    1
    20    18    19    1
    21    19     1    1
    22     1     2    1
    23     2     3   ar
    24     3     4   ar
    25     4     5   ar
    26     5    32    1
    27    32    33   ar
    28    33    34   ar
    29    34    35   ar
    30    35    36   ar
    31    36    37   ar
    32    37    38    1
    33    38    39   ar
    34    39    40   ar
    35    40    41   ar
    36    41    42   ar
    37     5     6   ar
    38     6     7   ar
    39     7     8    1
    40     8     9    1
    41     9    44    1
    42    44    45    1
    43    44    46    2
    44    19    10    1
    45     9     1    1
    46    18    12    1
    47     7     2   ar
    48    29    24   ar
    49    37    32   ar
    50    42    38   ar
    51    42    43    1
    52    11    20    1
@<TRIPOS>MOLECULE
*****
 46 52 0 0 0
SMALL
GASTEIGER

@<TRIPOS>ATOM
      1 C          -6.9779   -9.7897   29.4147 C.3     1  UNL1        0.0886
      2 C          -8.1196  -10.4869   30.0512 C.ar    1  UNL1       -0.0113
      3 C          -9.3325   -9.9190   30.4428 C.ar    1  UNL1       -0.0033
      4 C         -10.3040  -10.7405   31.0270 C.ar    1  UNL1       -0.0003
      5 C         -10.0390  -12.1100   31.2574 C.ar    1  UNL1       -0.0002
      6 C          -8.8281  -12.6666   30.7924 C.ar    1  UNL1       -0.0045
      7 C          -7.8927  -11.8346   30.1741 C.ar    1  UNL1       -0.0244
      8 C          -6.5677  -12.2344   29.6332 C.3     1  UNL1        0.0351
      9 C          -5.8870  -10.8872   29.2730 C.3     1  UNL1        0.0808
     10 C          -5.4094   -8.5752   30.9975 C.3     1  UNL1        0.1159
     11 N          -5.2258   -7.3751   31.6013 N.3     1  UNL1       -0.2851
     12 C          -6.2786   -6.6570   31.1846 C.3     1  UNL1        0.0910
     13 C          -6.5931   -5.3579   31.5507 C.3     1  UNL1        0.1018
     14 C          -7.7899   -4.8204   31.0583 C.3     1  UNL1        0.3136
     15 N          -8.6168   -5.5589   30.2409 N.am    1  UNL1       -0.1293
     16 C          -8.2604   -6.8322   29.8480 C.2     1  UNL1        0.4047
     17 O          -9.0007   -7.4818   29.0678 O.2     1  UNL1       -0.2174
     18 C          -7.0700   -7.3892   30.3515 C.3     1  UNL1        0.2039
     19 N          -6.5238   -8.6260   30.2077 N.3     1  UNL1       -0.2469
     20 H          -4.3497   -6.9462   31.3032 H       1  UNL1        0.1244
     21 C          -4.8622  -10.5807   32.3812 C.3     1  UNL1        0.0029
     22 C          -4.4411   -9.7071   31.2045 C.3     1  UNL1        0.0326
     23 C          -9.9163   -4.9876   29.8419 C.3     1  UNL1        0.3404
     24 C         -11.0563   -5.5987   30.6289 C.ar    1  UNL1        0.0640
     25 C         -11.5478   -4.9039   31.7486 C.ar    1  UNL1        0.0031
     26 C         -12.5560   -5.4547   32.5427 C.ar    1  UNL1       -0.0001
     27 C         -13.0878   -6.7060   32.2312 C.ar    1  UNL1        0.0007
     28 C         -12.6196   -7.4072   31.1188 C.ar    1  UNL1        0.0102
     29 C         -11.6102   -6.8643   30.3102 C.ar    1  UNL1        0.0710
     30 C         -11.1697   -7.6264   29.1664 C.1     1  UNL1        0.1003
     31 N         -10.8165   -8.2401   28.2510 N.1     1  UNL1       -0.1908
     32 C         -11.0147  -12.9541   31.9903 C.ar    1  UNL1        0.0030
     33 C         -12.1099  -13.4772   31.2780 C.ar    1  UNL1        0.0001
     34 C         -13.0929  -14.2238   31.9276 C.ar    1  UNL1        0.0000
     35 C         -13.0019  -14.4564   33.2979 C.ar    1  UNL1        0.0001
     36 C         -11.9203  -13.9549   34.0227 C.ar    1  UNL1        0.0031
     37 C         -10.9062  -13.2171   33.3860 C.ar    1  UNL1        0.0371
     38 C          -9.7629  -12.7566   34.2124 C.ar    1  UNL1        0.1806
     39 N          -9.4284  -13.2908   35.4029 N.ar    1  UNL1       -0.1084
     40 N          -8.3653  -12.6068   35.8019 N.ar    1  UNL1       -0.0229
     41 N          -8.0487  -11.6952   34.8956 N.ar    1  UNL1       -0.0464
     42 N          -8.9020  -11.7750   33.8912 N.ar    1  UNL1       -0.2388
     43 H          -8.8648  -11.1930   33.0264 H       1  UNL1        0.1923
     44 C          -5.2867  -10.9053   27.8819 C.2     1  UNL1        0.1526
     45 C          -4.9657   -9.6325   27.1553 C.3     1  UNL1        0.0723
     46 O          -5.0647  -11.9724   27.3284 O.2     1  UNL1       -0.2960
@<TRIPOS>BOND
     1    21    22    1
     2    22    10    1
     3    10    11    1
     4    11    12    1
     5    12    13    1
     6    13    14    1
     7    14    15    1
     8    15    23    1
     9    23    24    1
    10    24    25   ar
    11    25    26   ar
    12    26    27   ar
    13    27    28   ar
    14    28    29   ar
    15    29    30    1
    16    30    31    3
    17    15    16    1
    18    16    17    2
    19    16    18    1
    20    18    19    1
    21    19     1    1
    22     1     2    1
    23     2     3   ar
    24     3     4   ar
    25     4     5   ar
    26     5    32    1
    27    32    33   ar
    28    33    34   ar
    29    34    35   ar
    30    35    36   ar
    31    36    37   ar
    32    37    38    1
    33    38    39   ar
    34    39    40   ar
    35    40    41   ar
    36    41    42   ar
    37     5     6   ar
    38     6     7   ar
    39     7     8    1
    40     8     9    1
    41     9    44    1
    42    44    45    1
    43    44    46    2
    44    19    10    1
    45     9     1    1
    46    18    12    1
    47     7     2   ar
    48    29    24   ar
    49    37    32   ar
    50    42    38   ar
    51    42    43    1
    52    11    20    1
@<TRIPOS>MOLECULE
*****
 46 52 0 0 0
SMALL
GASTEIGER

@<TRIPOS>ATOM
      1 C          -6.4996  -10.2195   29.6129 C.3     1  UNL1        0.0886
      2 C          -7.8220  -10.6700   30.1058 C.ar    1  UNL1       -0.0113
      3 C          -8.8072   -9.8786   30.6977 C.ar    1  UNL1       -0.0033
      4 C         -10.0054  -10.4816   31.0985 C.ar    1  UNL1       -0.0003
      5 C         -10.1911  -11.8750   30.9476 C.ar    1  UNL1       -0.0002
      6 C          -9.2020  -12.6359   30.2880 C.ar    1  UNL1       -0.0045
      7 C          -8.0336  -12.0031   29.8592 C.ar    1  UNL1       -0.0244
      8 C          -6.8846  -12.6362   29.1612 C.3     1  UNL1        0.0351
      9 C          -5.8044  -11.5225   29.1298 C.3     1  UNL1        0.0808
     10 C          -4.9001  -10.0855   31.5786 C.3     1  UNL1        0.1159
     11 N          -4.3082   -9.1931   32.4103 N.3     1  UNL1       -0.2851
     12 C          -4.8032   -8.0162   32.0010 C.3     1  UNL1        0.0910
     13 C          -4.5485   -6.7719   32.5555 C.3     1  UNL1        0.1018
     14 C          -5.2362   -5.6741   32.0209 C.3     1  UNL1        0.3136
     15 N          -6.1281   -5.8317   30.9832 N.am    1  UNL1       -0.1293
     16 C          -6.3293   -7.0713   30.4127 C.2     1  UNL1        0.4047
     17 O          -7.1129   -7.1976   29.4386 O.2     1  UNL1       -0.2174
     18 C          -5.6584   -8.1840   30.9538 C.3     1  UNL1        0.2039
     19 N          -5.7286   -9.5090   30.6570 N.3     1  UNL1       -0.2469
     20 H          -3.2934   -9.2176   32.3103 H       1  UNL1        0.1244
     21 C          -3.4900  -11.8299   32.6765 C.3     1  UNL1        0.0029
     22 C          -4.6271  -11.5597   31.6971 C.3     1  UNL1        0.0326
     23 C          -6.9076   -4.6639   30.5326 C.3     1  UNL1        0.3404
     24 C          -8.3889   -4.9730   30.4780 C.ar    1  UNL1        0.0640
     25 C          -9.1493   -4.4331   29.4253 C.ar    1  UNL1        0.0031
     26 C         -10.5295   -4.6382   29.3653 C.ar    1  UNL1       -0.0001
     27 C         -11.1702   -5.3844   30.3543 C.ar    1  UNL1        0.0007
     28 C         -10.4315   -5.9361   31.4023 C.ar    1  UNL1        0.0102
     29 C          -9.0443   -5.7415   31.4730 C.ar    1  UNL1        0.0710
     30 C          -8.3270   -6.3424   32.5720 C.1     1  UNL1        0.1003
     31 N          -7.7512   -6.8213   33.4543 N.1     1  UNL1       -0.1908
     32 C         -11.4052  -12.5367   31.4859 C.ar    1  UNL1        0.0030
     33 C         -11.4171  -13.9416   31.5677 C.ar    1  UNL1        0.0001
     34 C         -12.5538  -14.6214   32.0052 C.ar    1  UNL1        0.0000
     35 C         -13.6976  -13.9117   32.3632 C.ar    1  UNL1        0.0001
     36 C         -13.7056  -12.5181   32.2983 C.ar    1  UNL1        0.0031
     37 C         -12.5648  -11.8096   31.8802 C.ar    1  UNL1        0.0371
     38 C         -12.6318  -10.3271   31.8822 C.ar    1  UNL1        0.1806
     39 N         -12.8372   -9.5793   30.7808 N.ar    1  UNL1       -0.1084
     40 N         -12.8306   -8.3248   31.2090 N.ar    1  UNL1       -0.0229
     41 N         -12.6389   -8.2957   32.5187 N.ar    1  UNL1       -0.0464
     42 N         -12.5199   -9.5337   32.9619 N.ar    1  UNL1       -0.2388
     43 H         -12.3930   -9.8019   33.9619 H       1  UNL1        0.1923
     44 C          -5.1962  -11.3563   27.7519 C.2     1  UNL1        0.1526
     45 C          -4.8941   -9.9973   27.1925 C.3     1  UNL1        0.0723
     46 O          -4.9522  -12.3419   27.0712 O.2     1  UNL1       -0.2960
@<TRIPOS>BOND
     1    21    22    1
     2    22    10    1
     3    10    11    1
     4    11    12    1
     5    12    13    1
     6    13    14    1
     7    14    15    1
     8    15    23    1
     9    23    24    1
    10    24    25   ar
    11    25    26   ar
    12    26    27   ar
    13    27    28   ar
    14    28    29   ar
    15    29    30    1
    16    30    31    3
    17    15    16    1
    18    16    17    2
    19    16    18    1
    20    18    19    1
    21    19     1    1
    22     1     2    1
    23     2     3   ar
    24     3     4   ar
    25     4     5   ar
    26     5    32    1
    27    32    33   ar
    28    33    34   ar
    29    34    35   ar
    30    35    36   ar
    31    36    37   ar
    32    37    38    1
    33    38    39   ar
    34    39    40   ar
    35    40    41   ar
    36    41    42   ar
    37     5     6   ar
    38     6     7   ar
    39     7     8    1
    40     8     9    1
    41     9    44    1
    42    44    45    1
    43    44    46    2
    44    19    10    1
    45     9     1    1
    46    18    12    1
    47     7     2   ar
    48    29    24   ar
    49    37    32   ar
    50    42    38   ar
    51    42    43    1
    52    11    20    1
@<TRIPOS>MOLECULE
*****
 46 52 0 0 0
SMALL
GASTEIGER

@<TRIPOS>ATOM
      1 C          -8.9642   -8.4986   31.1917 C.3     1  UNL1        0.0886
      2 C          -9.5420   -9.6590   31.9088 C.ar    1  UNL1       -0.0113
      3 C          -8.9746  -10.3439   32.9840 C.ar    1  UNL1       -0.0033
      4 C          -9.6741  -11.4207   33.5421 C.ar    1  UNL1       -0.0003
      5 C         -10.9101  -11.8329   32.9932 C.ar    1  UNL1       -0.0002
      6 C         -11.4864  -11.0802   31.9474 C.ar    1  UNL1       -0.0045
      7 C         -10.7884   -9.9843   31.4363 C.ar    1  UNL1       -0.0244
      8 C         -11.2267   -9.0852   30.3374 C.3     1  UNL1        0.0351
      9 C          -9.9819   -8.2026   30.0553 C.3     1  UNL1        0.0808
     10 C          -6.5571   -7.8978   30.6578 C.3     1  UNL1        0.1159
     11 N          -5.4152   -8.4259   30.1523 N.3     1  UNL1       -0.2851
     12 C          -5.7700   -9.6798   29.8363 C.3     1  UNL1        0.0910
     13 C          -4.9716  -10.6412   29.2372 C.3     1  UNL1        0.1018
     14 C          -5.5681  -11.8688   28.9196 C.3     1  UNL1        0.3136
     15 N          -6.8964  -12.1056   29.1962 N.am    1  UNL1       -0.1293
     16 C          -7.6603  -11.1534   29.8384 C.2     1  UNL1        0.4047
     17 O          -8.8596  -11.3950   30.1248 O.2     1  UNL1       -0.2174
     18 C          -7.0769   -9.9098   30.1452 C.3     1  UNL1        0.2039
     19 N          -7.6021   -8.7783   30.6860 N.3     1  UNL1       -0.2469
     20 H          -4.6705   -8.4214   30.8493 H       1  UNL1        0.1244
     21 C          -6.4932   -5.4975   29.9715 C.3     1  UNL1        0.0029
     22 C          -6.6102   -6.4733   31.1374 C.3     1  UNL1        0.0326
     23 C          -7.5027  -13.3703   28.7409 C.3     1  UNL1        0.3404
     24 C          -6.6715  -14.0262   27.6585 C.ar    1  UNL1        0.0640
     25 C          -5.5400  -13.3450   27.1751 C.ar    1  UNL1        0.0031
     26 C          -4.7770  -13.8799   26.1348 C.ar    1  UNL1       -0.0001
     27 C          -5.1320  -15.1012   25.5623 C.ar    1  UNL1        0.0007
     28 C          -6.2463  -15.7967   26.0341 C.ar    1  UNL1        0.0102
     29 C          -7.0194  -15.2734   27.0810 C.ar    1  UNL1        0.0710
     30 C          -8.1552  -16.0381   27.5376 C.1     1  UNL1        0.1003
     31 N          -9.0658  -16.6497   27.9064 N.1     1  UNL1       -0.1908
     32 C         -11.5918  -13.0497   33.4996 C.ar    1  UNL1        0.0030
     33 C         -12.7011  -13.5379   32.7844 C.ar    1  UNL1        0.0001
     34 C         -13.4203  -14.6397   33.2476 C.ar    1  UNL1        0.0000
     35 C         -13.0476  -15.2688   34.4331 C.ar    1  UNL1        0.0001
     36 C         -11.9458  -14.8074   35.1540 C.ar    1  UNL1        0.0031
     37 C         -11.1927  -13.7113   34.6962 C.ar    1  UNL1        0.0371
     38 C         -10.0062  -13.3070   35.4905 C.ar    1  UNL1        0.1806
     39 N          -8.7357  -13.4079   35.0543 N.ar    1  UNL1       -0.1084
     40 N          -7.9913  -12.9452   36.0488 N.ar    1  UNL1       -0.0229
     41 N          -8.7656  -12.5657   37.0535 N.ar    1  UNL1       -0.0464
     42 N         -10.0271  -12.7747   36.7250 N.ar    1  UNL1       -0.2388
     43 H         -10.8486  -12.5352   37.3215 H       1  UNL1        0.1923
     44 C         -10.3310   -6.7298   29.9843 C.2     1  UNL1        0.1526
     45 C         -11.3469   -6.1247   30.9077 C.3     1  UNL1        0.0723
     46 O          -9.7869   -6.0143   29.1558 O.2     1  UNL1       -0.2960
@<TRIPOS>BOND
     1    21    22    1
     2    22    10    1
     3    10    11    1
     4    11    12    1
     5    12    13    1
     6    13    14    1
     7    14    15    1
     8    15    23    1
     9    23    24    1
    10    24    25   ar
    11    25    26   ar
    12    26    27   ar
    13    27    28   ar
    14    28    29   ar
    15    29    30    1
    16    30    31    3
    17    15    16    1
    18    16    17    2
    19    16    18    1
    20    18    19    1
    21    19     1    1
    22     1     2    1
    23     2     3   ar
    24     3     4   ar
    25     4     5   ar
    26     5    32    1
    27    32    33   ar
    28    33    34   ar
    29    34    35   ar
    30    35    36   ar
    31    36    37   ar
    32    37    38    1
    33    38    39   ar
    34    39    40   ar
    35    40    41   ar
    36    41    42   ar
    37     5     6   ar
    38     6     7   ar
    39     7     8    1
    40     8     9    1
    41     9    44    1
    42    44    45    1
    43    44    46    2
    44    19    10    1
    45     9     1    1
    46    18    12    1
    47     7     2   ar
    48    29    24   ar
    49    37    32   ar
    50    42    38   ar
    51    42    43    1
    52    11    20    1
@<TRIPOS>MOLECULE
*****
 46 52 0 0 0
SMALL
GASTEIGER

@<TRIPOS>ATOM
      1 C          -5.0038  -17.3925   22.5888 C.3     1  UNL1        0.0886
      2 C          -6.4180  -17.4759   22.1556 C.ar    1  UNL1       -0.0113
      3 C          -6.9663  -18.4003   21.2656 C.ar    1  UNL1       -0.0033
      4 C          -8.3345  -18.3290   20.9777 C.ar    1  UNL1       -0.0003
      5 C          -9.1330  -17.3088   21.5437 C.ar    1  UNL1       -0.0002
      6 C          -8.5619  -16.4294   22.4885 C.ar    1  UNL1       -0.0045
      7 C          -7.2040  -16.5480   22.7911 C.ar    1  UNL1       -0.0244
      8 C          -6.4295  -15.7124   23.7451 C.3     1  UNL1        0.0351
      9 C          -4.9572  -16.1444   23.5133 C.3     1  UNL1        0.0808
     10 C          -4.3080  -16.6269   20.2715 C.3     1  UNL1        0.1159
     11 N          -3.2754  -16.6899   19.3951 N.3     1  UNL1       -0.2851
     12 C          -2.3712  -17.4421   20.0389 C.3     1  UNL1        0.0910
     13 C          -1.1377  -17.8498   19.5565 C.3     1  UNL1        0.1018
     14 C          -0.3780  -18.7040   20.3671 C.3     1  UNL1        0.3136
     15 N          -0.8437  -19.1175   21.5956 N.am    1  UNL1       -0.1293
     16 C          -2.0519  -18.6598   22.0785 C.2     1  UNL1        0.4047
     17 O          -2.4485  -19.0089   23.2186 O.2     1  UNL1       -0.2174
     18 C          -2.8320  -17.8167   21.2651 C.3     1  UNL1        0.2039
     19 N          -4.0747  -17.2939   21.4415 N.3     1  UNL1       -0.2469
     20 H          -2.9047  -15.7601   19.1994 H       1  UNL1        0.1244
     21 C          -5.3786  -14.3737   20.1568 C.3     1  UNL1        0.0029
     22 C          -5.5654  -15.8714   19.9399 C.3     1  UNL1        0.0326
     23 C          -0.0567  -20.1036   22.3588 C.3     1  UNL1        0.3404
     24 C           0.8418  -20.9181   21.4522 C.ar    1  UNL1        0.0640
     25 C           0.4836  -22.2487   21.1709 C.ar    1  UNL1        0.0031
     26 C           1.3109  -23.0594   20.3907 C.ar    1  UNL1       -0.0001
     27 C           2.5068  -22.5545   19.8805 C.ar    1  UNL1        0.0007
     28 C           2.8755  -21.2337   20.1412 C.ar    1  UNL1        0.0102
     29 C           2.0523  -20.4069   20.9198 C.ar    1  UNL1        0.0710
     30 C           2.4756  -19.0465   21.1503 C.1     1  UNL1        0.1003
     31 N           2.8165  -17.9565   21.3378 N.1     1  UNL1       -0.1908
     32 C         -10.5531  -17.1528   21.1430 C.ar    1  UNL1        0.0030
     33 C         -10.8450  -16.3503   20.0244 C.ar    1  UNL1        0.0001
     34 C         -12.1651  -16.1155   19.6395 C.ar    1  UNL1        0.0000
     35 C         -13.2143  -16.6730   20.3664 C.ar    1  UNL1        0.0001
     36 C         -12.9482  -17.4791   21.4736 C.ar    1  UNL1        0.0031
     37 C         -11.6251  -17.7472   21.8685 C.ar    1  UNL1        0.0371
     38 C         -11.4186  -18.6516   23.0267 C.ar    1  UNL1        0.1806
     39 N         -10.8775  -19.8819   22.9368 N.ar    1  UNL1       -0.1084
     40 N         -10.8689  -20.3470   24.1781 N.ar    1  UNL1       -0.0229
     41 N         -11.3735  -19.4424   25.0027 N.ar    1  UNL1       -0.0464
     42 N         -11.7162  -18.3732   24.3080 N.ar    1  UNL1       -0.2388
     43 H         -12.1107  -17.4969   24.7137 H       1  UNL1        0.1923
     44 C          -4.2366  -16.4360   24.8139 C.2     1  UNL1        0.1526
     45 C          -4.6771  -15.8122   26.1053 C.3     1  UNL1        0.0723
     46 O          -3.2707  -17.1853   24.8201 O.2     1  UNL1       -0.2960
@<TRIPOS>BOND
     1    21    22    1
     2    22    10    1
     3    10    11    1
     4    11    12    1
     5    12    13    1
     6    13    14    1
     7    14    15    1
     8    15    23    1
     9    23    24    1
    10    24    25   ar
    11    25    26   ar
    12    26    27   ar
    13    27    28   ar
    14    28    29   ar
    15    29    30    1
    16    30    31    3
    17    15    16    1
    18    16    17    2
    19    16    18    1
    20    18    19    1
    21    19     1    1
    22     1     2    1
    23     2     3   ar
    24     3     4   ar
    25     4     5   ar
    26     5    32    1
    27    32    33   ar
    28    33    34   ar
    29    34    35   ar
    30    35    36   ar
    31    36    37   ar
    32    37    38    1
    33    38    39   ar
    34    39    40   ar
    35    40    41   ar
    36    41    42   ar
    37     5     6   ar
    38     6     7   ar
    39     7     8    1
    40     8     9    1
    41     9    44    1
    42    44    45    1
    43    44    46    2
    44    19    10    1
    45     9     1    1
    46    18    12    1
    47     7     2   ar
    48    29    24   ar
    49    37    32   ar
    50    42    38   ar
    51    42    43    1
    52    11    20    1
@<TRIPOS>MOLECULE
*****
 46 52 0 0 0
SMALL
GASTEIGER

@<TRIPOS>ATOM
      1 C         -10.5882  -11.8668   32.2113 C.3     1  UNL1        0.0886
      2 C          -9.2983  -11.4177   31.6375 C.ar    1  UNL1       -0.0113
      3 C          -8.4717  -10.4067   32.1293 C.ar    1  UNL1       -0.0033
      4 C          -7.2789  -10.1229   31.4536 C.ar    1  UNL1       -0.0003
      5 C          -6.9447  -10.8178   30.2686 C.ar    1  UNL1       -0.0002
      6 C          -7.7699  -11.8770   29.8333 C.ar    1  UNL1       -0.0045
      7 C          -8.9326  -12.1688   30.5490 C.ar    1  UNL1       -0.0244
      8 C          -9.9233  -13.2324   30.2400 C.3     1  UNL1        0.0351
      9 C         -11.0928  -12.9528   31.2210 C.3     1  UNL1        0.0808
     10 C         -12.6264  -10.7316   33.2099 C.3     1  UNL1        0.1159
     11 N         -13.3245   -9.5700   33.1695 N.3     1  UNL1       -0.2851
     12 C         -12.6598   -8.8433   32.2595 C.3     1  UNL1        0.0910
     13 C         -12.9911   -7.5755   31.8084 C.3     1  UNL1        0.1018
     14 C         -12.2017   -7.0265   30.7890 C.3     1  UNL1        0.3136
     15 N         -11.1379   -7.7241   30.2609 N.am    1  UNL1       -0.1293
     16 C         -10.7947   -8.9638   30.7589 C.2     1  UNL1        0.4047
     17 O          -9.7967   -9.5737   30.2998 O.2     1  UNL1       -0.2174
     18 C         -11.5917   -9.5330   31.7697 C.3     1  UNL1        0.2039
     19 N         -11.5438  -10.7493   32.3756 N.3     1  UNL1       -0.2469
     20 H         -13.3203   -9.1090   34.0793 H       1  UNL1        0.1244
     21 C         -14.1769  -12.6684   33.4944 C.3     1  UNL1        0.0029
     22 C         -13.0428  -11.8590   34.1140 C.3     1  UNL1        0.0326
     23 C         -10.4096   -7.1490   29.1149 C.3     1  UNL1        0.3404
     24 C          -9.1046   -6.5152   29.5483 C.ar    1  UNL1        0.0640
     25 C          -7.9760   -7.3400   29.7029 C.ar    1  UNL1        0.0031
     26 C          -6.7659   -6.8133   30.1598 C.ar    1  UNL1       -0.0001
     27 C          -6.6648   -5.4571   30.4691 C.ar    1  UNL1        0.0007
     28 C          -7.7712   -4.6204   30.3138 C.ar    1  UNL1        0.0102
     29 C          -8.9916   -5.1350   29.8520 C.ar    1  UNL1        0.0710
     30 C         -10.1011   -4.2244   29.6998 C.1     1  UNL1        0.1003
     31 N         -10.9924   -3.4966   29.5764 N.1     1  UNL1       -0.1908
     32 C          -5.7473  -10.4334   29.4811 C.ar    1  UNL1        0.0030
     33 C          -5.9378   -9.9439   28.1755 C.ar    1  UNL1        0.0001
     34 C          -4.8470   -9.6274   27.3657 C.ar    1  UNL1        0.0000
     35 C          -3.5497   -9.7984   27.8431 C.ar    1  UNL1        0.0001
     36 C          -3.3371  -10.2739   29.1374 C.ar    1  UNL1        0.0031
     37 C          -4.4211  -10.5801   29.9798 C.ar    1  UNL1        0.0371
     38 C          -4.1181  -11.0354   31.3593 C.ar    1  UNL1        0.1806
     39 N          -3.6657  -12.2667   31.6656 N.ar    1  UNL1       -0.1084
     40 N          -3.5222  -12.2640   32.9834 N.ar    1  UNL1       -0.0229
     41 N          -3.8616  -11.0812   33.4720 N.ar    1  UNL1       -0.0464
     42 N          -4.2294  -10.2958   32.4765 N.ar    1  UNL1       -0.2388
     43 H          -4.5159   -9.2977   32.5759 H       1  UNL1        0.1923
     44 C         -11.5427  -14.2060   31.9442 C.2     1  UNL1        0.1526
     45 C         -12.4457  -15.2052   31.2831 C.3     1  UNL1        0.0723
     46 O         -11.1761  -14.4113   33.0922 O.2     1  UNL1       -0.2960
@<TRIPOS>BOND
     1    21    22    1
     2    22    10    1
     3    10    11    1
     4    11    12    1
     5    12    13    1
     6    13    14    1
     7    14    15    1
     8    15    23    1
     9    23    24    1
    10    24    25   ar
    11    25    26   ar
    12    26    27   ar
    13    27    28   ar
    14    28    29   ar
    15    29    30    1
    16    30    31    3
    17    15    16    1
    18    16    17    2
    19    16    18    1
    20    18    19    1
    21    19     1    1
    22     1     2    1
    23     2     3   ar
    24     3     4   ar
    25     4     5   ar
    26     5    32    1
    27    32    33   ar
    28    33    34   ar
    29    34    35   ar
    30    35    36   ar
    31    36    37   ar
    32    37    38    1
    33    38    39   ar
    34    39    40   ar
    35    40    41   ar
    36    41    42   ar
    37     5     6   ar
    38     6     7   ar
    39     7     8    1
    40     8     9    1
    41     9    44    1
    42    44    45    1
    43    44    46    2
    44    19    10    1
    45     9     1    1
    46    18    12    1
    47     7     2   ar
    48    29    24   ar
    49    37    32   ar
    50    42    38   ar
    51    42    43    1
    52    11    20    1
