@<TRIPOS>MOLECULE
*****
 49 54 0 0 0
SMALL
GASTEIGER

@<TRIPOS>ATOM
      1 O           7.4573   78.1340   31.6254 O.2     1  UNL1       -0.2701
      2 C           7.1995   77.9373   30.4084 C.2     1  UNL1        0.2483
      3 N           5.9152   77.4055   30.0355 N.am    1  UNL1       -0.2945
      4 H           5.1300   77.5522   30.7097 H       1  UNL1        0.1501
      5 C           8.2119   78.2818   29.4004 C.ar    1  UNL1        0.0808
      6 C           9.3708   77.5056   29.2751 C.ar    1  UNL1        0.0080
      7 C          10.2449   77.7182   28.2064 C.ar    1  UNL1        0.0148
      8 C           9.9893   78.7309   27.2653 C.ar    1  UNL1        0.0502
      9 C           8.8841   79.5795   27.4663 C.ar    1  UNL1        0.0443
     10 C           8.0007   79.3561   28.5250 C.ar    1  UNL1        0.1457
     11 F           6.9029   80.1443   28.6545 F       1  UNL1       -0.2040
     12 N          10.7749   78.8088   26.0552 N.pl3   1  UNL1       -0.3040
     13 C          10.1847   79.2588   24.7874 C.3     1  UNL1        0.1122
     14 C           9.9980   78.0469   23.8693 C.3     1  UNL1        0.1123
     15 N          11.1740   77.1657   23.9241 N.pl3   1  UNL1       -0.3011
     16 C          12.4024   77.6084   24.5970 C.3     1  UNL1        0.1123
     17 C          12.0764   78.1162   26.0111 C.3     1  UNL1        0.1122
     18 C          11.0616   75.8183   23.4424 C.ar    1  UNL1        0.0928
     19 C          11.2184   75.5488   22.0707 C.ar    1  UNL1        0.1485
     20 O          11.4619   76.5912   21.1791 O.3     1  UNL1       -0.5042
     21 C          11.1429   74.2300   21.6035 C.ar    1  UNL1        0.0493
     22 C          10.9143   73.1800   22.4962 C.ar    1  UNL1        0.0616
     23 CL         10.8332   71.5304   21.9060 Cl      1  UNL1       -0.0821
     24 C          10.7492   73.4446   23.8587 C.ar    1  UNL1        0.0242
     25 C          10.8203   74.7582   24.3359 C.ar    1  UNL1        0.0748
     26 CL         10.5742   75.0542   26.0513 Cl      1  UNL1       -0.0808
     27 H          11.5816   76.4210   20.1875 H       1  UNL1        0.2922
     28 C           5.6888   76.4333   28.9537 C.3     1  UNL1        0.1535
     29 C           5.0575   77.0888   27.7454 C.2     1  UNL1        0.2443
     30 O           5.4604   78.2194   27.3613 O.2     1  UNL1       -0.2730
     31 N           4.0287   76.4001   27.0151 N.am    1  UNL1       -0.2825
     32 H           3.7954   75.4251   27.3105 H       1  UNL1        0.1549
     33 C           3.4851   76.8657   25.7671 C.ar    1  UNL1        0.0535
     34 C           3.9495   76.3142   24.5653 C.ar    1  UNL1        0.0353
     35 C           3.4231   76.7596   23.3502 C.ar    1  UNL1        0.1002
     36 N           2.4509   77.7094   23.3352 N.ar    1  UNL1       -0.2422
     37 C           1.9638   78.2463   24.4845 C.ar    1  UNL1        0.1002
     38 C           2.4671   77.8326   25.7203 C.ar    1  UNL1        0.0353
     39 C           6.9838   75.6536   28.6292 C.3     1  UNL1        0.0569
     40 C           6.7869   74.6723   27.5060 C.ar    1  UNL1       -0.0017
     41 C           6.2629   73.3877   27.6138 C.ar    1  UNL1        0.0681
     42 N           6.1387   72.8239   26.3908 N.ar    1  UNL1       -0.3523
     43 C           6.5734   73.7428   25.5109 C.ar    1  UNL1        0.0563
     44 C           6.6081   73.6304   24.1215 C.ar    1  UNL1        0.0170
     45 C           7.0802   74.7310   23.3835 C.ar    1  UNL1        0.0015
     46 C           7.5039   75.9057   24.0426 C.ar    1  UNL1        0.0001
     47 C           7.4560   75.9923   25.4455 C.ar    1  UNL1        0.0012
     48 C           6.9802   74.8851   26.1522 C.ar    1  UNL1        0.0131
     49 H           5.7619   71.8739   26.1763 H       1  UNL1        0.1660
@<TRIPOS>BOND
     1     1     2    2
     2     2     3   am
     3     3    28    1
     4    28    39    1
     5    39    40    1
     6    40    41   ar
     7    41    42   ar
     8    42    43   ar
     9    43    44   ar
    10    44    45   ar
    11    45    46   ar
    12    46    47   ar
    13    47    48   ar
    14    28    29    1
    15    29    30    2
    16    29    31   am
    17    31    33    1
    18    33    34   ar
    19    34    35   ar
    20    35    36   ar
    21    36    37   ar
    22    37    38   ar
    23     2     5    1
    24     5     6   ar
    25     6     7   ar
    26     7     8   ar
    27     8    12    1
    28    12    13    1
    29    13    14    1
    30    14    15    1
    31    15    18    1
    32    18    19   ar
    33    19    20    1
    34    19    21   ar
    35    21    22   ar
    36    22    23    1
    37    22    24   ar
    38    24    25   ar
    39    25    26    1
    40    15    16    1
    41    16    17    1
    42     8     9   ar
    43     9    10   ar
    44    10    11    1
    45    48    40   ar
    46    38    33   ar
    47    10     5   ar
    48    48    43   ar
    49    17    12    1
    50    25    18   ar
    51     3     4    1
    52    42    49    1
    53    31    32    1
    54    20    27    1
@<TRIPOS>MOLECULE
*****
 49 54 0 0 0
SMALL
GASTEIGER

@<TRIPOS>ATOM
      1 O          12.8528   78.8872   24.3136 O.2     1  UNL1       -0.2701
      2 C          11.8526   78.1891   24.6278 C.2     1  UNL1        0.2483
      3 N          11.4767   77.0780   23.7939 N.am    1  UNL1       -0.2945
      4 H          12.2265   76.6615   23.1964 H       1  UNL1        0.1501
      5 C          11.1124   78.5156   25.8546 C.ar    1  UNL1        0.0808
      6 C          10.3005   79.6557   25.9026 C.ar    1  UNL1        0.0080
      7 C           9.4589   79.8716   26.9964 C.ar    1  UNL1        0.0148
      8 C           9.4401   78.9670   28.0726 C.ar    1  UNL1        0.0502
      9 C          10.3438   77.8875   28.0663 C.ar    1  UNL1        0.0443
     10 C          11.1730   77.6621   26.9650 C.ar    1  UNL1        0.1457
     11 F          11.9835   76.5731   26.9530 F       1  UNL1       -0.2040
     12 N           8.4249   79.0796   29.0945 N.pl3   1  UNL1       -0.3040
     13 C           8.6818   78.6574   30.4779 C.3     1  UNL1        0.1122
     14 C           7.9431   77.3414   30.7403 C.3     1  UNL1        0.1123
     15 N           6.5905   77.3794   30.1644 N.pl3   1  UNL1       -0.3011
     16 C           6.0357   78.6408   29.6556 C.3     1  UNL1        0.1123
     17 C           7.0262   79.2983   28.6808 C.3     1  UNL1        0.1122
     18 C           5.8770   76.1488   29.9725 C.ar    1  UNL1        0.0928
     19 C           4.5929   75.9896   30.5242 C.ar    1  UNL1        0.1485
     20 O           4.0238   77.0173   31.2730 O.3     1  UNL1       -0.5042
     21 C           3.8811   74.8021   30.3090 C.ar    1  UNL1        0.0493
     22 C           4.4417   73.7749   29.5458 C.ar    1  UNL1        0.0616
     23 CL          3.5400   72.2960   29.2704 Cl      1  UNL1       -0.0821
     24 C           5.7210   73.9259   29.0032 C.ar    1  UNL1        0.0242
     25 C           6.4417   75.1067   29.2139 C.ar    1  UNL1        0.0748
     26 CL          8.0609   75.2457   28.5433 Cl      1  UNL1       -0.0808
     27 H           3.0991   76.9268   31.6771 H       1  UNL1        0.2922
     28 C          10.0911   76.6836   23.4918 C.3     1  UNL1        0.1535
     29 C           9.6703   77.1544   22.1171 C.2     1  UNL1        0.2443
     30 O          10.1921   76.6428   21.0905 O.2     1  UNL1       -0.2730
     31 N           8.6461   78.1546   21.9872 N.am    1  UNL1       -0.2825
     32 H           8.1728   78.4790   22.8608 H       1  UNL1        0.1549
     33 C           8.0662   78.5473   20.7305 C.ar    1  UNL1        0.0535
     34 C           6.6731   78.5271   20.5789 C.ar    1  UNL1        0.0353
     35 C           6.1036   78.9107   19.3620 C.ar    1  UNL1        0.1002
     36 N           6.8964   79.3205   18.3369 N.ar    1  UNL1       -0.2422
     37 C           8.2485   79.3730   18.4611 C.ar    1  UNL1        0.1002
     38 C           8.8581   78.9927   19.6592 C.ar    1  UNL1        0.0353
     39 C           9.8845   75.1681   23.7172 C.3     1  UNL1        0.0569
     40 C           8.4548   74.8349   24.0466 C.ar    1  UNL1       -0.0017
     41 C           7.7972   73.6426   23.7595 C.ar    1  UNL1        0.0681
     42 N           6.5516   73.6514   24.2859 N.ar    1  UNL1       -0.3523
     43 C           6.4184   74.8356   24.9084 C.ar    1  UNL1        0.0563
     44 C           5.3135   75.2919   25.6264 C.ar    1  UNL1        0.0170
     45 C           5.3961   76.5622   26.2249 C.ar    1  UNL1        0.0015
     46 C           6.5668   77.3405   26.0931 C.ar    1  UNL1        0.0001
     47 C           7.6674   76.8544   25.3648 C.ar    1  UNL1        0.0012
     48 C           7.5581   75.5886   24.7836 C.ar    1  UNL1        0.0131
     49 H           5.8461   72.8833   24.2341 H       1  UNL1        0.1660
@<TRIPOS>BOND
     1     1     2    2
     2     2     3   am
     3     3    28    1
     4    28    39    1
     5    39    40    1
     6    40    41   ar
     7    41    42   ar
     8    42    43   ar
     9    43    44   ar
    10    44    45   ar
    11    45    46   ar
    12    46    47   ar
    13    47    48   ar
    14    28    29    1
    15    29    30    2
    16    29    31   am
    17    31    33    1
    18    33    34   ar
    19    34    35   ar
    20    35    36   ar
    21    36    37   ar
    22    37    38   ar
    23     2     5    1
    24     5     6   ar
    25     6     7   ar
    26     7     8   ar
    27     8    12    1
    28    12    13    1
    29    13    14    1
    30    14    15    1
    31    15    18    1
    32    18    19   ar
    33    19    20    1
    34    19    21   ar
    35    21    22   ar
    36    22    23    1
    37    22    24   ar
    38    24    25   ar
    39    25    26    1
    40    15    16    1
    41    16    17    1
    42     8     9   ar
    43     9    10   ar
    44    10    11    1
    45    48    40   ar
    46    38    33   ar
    47    10     5   ar
    48    48    43   ar
    49    17    12    1
    50    25    18   ar
    51     3     4    1
    52    42    49    1
    53    31    32    1
    54    20    27    1
@<TRIPOS>MOLECULE
*****
 49 54 0 0 0
SMALL
GASTEIGER

@<TRIPOS>ATOM
      1 O           8.7345   78.8016   20.0759 O.2     1  UNL1       -0.2701
      2 C           8.7056   77.8969   20.9517 C.2     1  UNL1        0.2483
      3 N           8.1171   76.6230   20.6321 N.am    1  UNL1       -0.2945
      4 H           8.0806   76.3605   19.6210 H       1  UNL1        0.1501
      5 C           9.2989   78.1615   22.2699 C.ar    1  UNL1        0.0808
      6 C           9.0457   79.3742   22.9233 C.ar    1  UNL1        0.0080
      7 C           9.4561   79.5568   24.2460 C.ar    1  UNL1        0.0148
      8 C          10.1532   78.5415   24.9242 C.ar    1  UNL1        0.0502
      9 C          10.5030   77.3733   24.2206 C.ar    1  UNL1        0.0443
     10 C          10.0779   77.1836   22.9036 C.ar    1  UNL1        0.1457
     11 F          10.3670   76.0174   22.2716 F       1  UNL1       -0.2040
     12 N          10.3880   78.6505   26.3457 N.pl3   1  UNL1       -0.3040
     13 C          10.8378   77.4978   27.1375 C.3     1  UNL1        0.1122
     14 C           9.6659   76.9884   27.9821 C.3     1  UNL1        0.1123
     15 N           8.9231   78.1113   28.5737 N.pl3   1  UNL1       -0.3011
     16 C           9.4649   79.4752   28.5099 C.3     1  UNL1        0.1123
     17 C           9.8521   79.8226   27.0631 C.3     1  UNL1        0.1122
     18 C           7.6007   77.8842   29.0836 C.ar    1  UNL1        0.0928
     19 C           7.3647   77.9394   30.4693 C.ar    1  UNL1        0.1485
     20 O           8.4171   78.1937   31.3459 O.3     1  UNL1       -0.5042
     21 C           6.0681   77.7518   30.9662 C.ar    1  UNL1        0.0493
     22 C           5.0071   77.5118   30.0896 C.ar    1  UNL1        0.0616
     23 CL          3.3847   77.2900   30.7180 Cl      1  UNL1       -0.0821
     24 C           5.2392   77.4475   28.7128 C.ar    1  UNL1        0.0242
     25 C           6.5305   77.6310   28.2057 C.ar    1  UNL1        0.0748
     26 CL          6.7880   77.5096   26.4708 Cl      1  UNL1       -0.0808
     27 H           8.2706   78.2416   32.3473 H       1  UNL1        0.2922
     28 C           7.3077   75.8140   21.5579 C.3     1  UNL1        0.1535
     29 C           6.1060   76.5846   22.0586 C.2     1  UNL1        0.2443
     30 O           5.8013   77.6870   21.5296 O.2     1  UNL1       -0.2730
     31 N           5.2920   76.0353   23.1082 N.am    1  UNL1       -0.2825
     32 H           5.5247   75.0750   23.4490 H       1  UNL1        0.1549
     33 C           4.0451   76.6103   23.5377 C.ar    1  UNL1        0.0535
     34 C           3.0861   76.9682   22.5805 C.ar    1  UNL1        0.0353
     35 C           1.8717   77.5239   22.9915 C.ar    1  UNL1        0.1002
     36 N           1.6143   77.6979   24.3146 N.ar    1  UNL1       -0.2422
     37 C           2.5146   77.3394   25.2672 C.ar    1  UNL1        0.1002
     38 C           3.7429   76.7856   24.8983 C.ar    1  UNL1        0.0353
     39 C           6.9493   74.4469   20.9313 C.3     1  UNL1        0.0569
     40 C           5.4933   74.3576   20.5631 C.ar    1  UNL1       -0.0017
     41 C           4.5408   73.5333   21.1544 C.ar    1  UNL1        0.0681
     42 N           3.3150   73.7840   20.6411 N.ar    1  UNL1       -0.3523
     43 C           3.4832   74.7634   19.7356 C.ar    1  UNL1        0.0563
     44 C           2.4971   75.3800   18.9665 C.ar    1  UNL1        0.0170
     45 C           2.8912   76.4096   18.0928 C.ar    1  UNL1        0.0015
     46 C           4.2468   76.7950   18.0066 C.ar    1  UNL1        0.0001
     47 C           5.2206   76.1572   18.7959 C.ar    1  UNL1        0.0012
     48 C           4.7998   75.1401   19.6564 C.ar    1  UNL1        0.0131
     49 H           2.4184   73.3217   20.9109 H       1  UNL1        0.1660
@<TRIPOS>BOND
     1     1     2    2
     2     2     3   am
     3     3    28    1
     4    28    39    1
     5    39    40    1
     6    40    41   ar
     7    41    42   ar
     8    42    43   ar
     9    43    44   ar
    10    44    45   ar
    11    45    46   ar
    12    46    47   ar
    13    47    48   ar
    14    28    29    1
    15    29    30    2
    16    29    31   am
    17    31    33    1
    18    33    34   ar
    19    34    35   ar
    20    35    36   ar
    21    36    37   ar
    22    37    38   ar
    23     2     5    1
    24     5     6   ar
    25     6     7   ar
    26     7     8   ar
    27     8    12    1
    28    12    13    1
    29    13    14    1
    30    14    15    1
    31    15    18    1
    32    18    19   ar
    33    19    20    1
    34    19    21   ar
    35    21    22   ar
    36    22    23    1
    37    22    24   ar
    38    24    25   ar
    39    25    26    1
    40    15    16    1
    41    16    17    1
    42     8     9   ar
    43     9    10   ar
    44    10    11    1
    45    48    40   ar
    46    38    33   ar
    47    10     5   ar
    48    48    43   ar
    49    17    12    1
    50    25    18   ar
    51     3     4    1
    52    42    49    1
    53    31    32    1
    54    20    27    1
@<TRIPOS>MOLECULE
*****
 49 54 0 0 0
SMALL
GASTEIGER

@<TRIPOS>ATOM
      1 O           4.3773   75.6975   21.2568 O.2     1  UNL1       -0.2701
      2 C           5.2737   76.1339   22.0264 C.2     1  UNL1        0.2483
      3 N           6.3204   76.9647   21.4921 N.am    1  UNL1       -0.2945
      4 H           6.1096   77.4778   20.6062 H       1  UNL1        0.1501
      5 C           5.2094   75.8015   23.4565 C.ar    1  UNL1        0.0808
      6 C           5.9805   74.7505   23.9686 C.ar    1  UNL1        0.0080
      7 C           6.0608   74.5476   25.3483 C.ar    1  UNL1        0.0148
      8 C           5.3462   75.3727   26.2344 C.ar    1  UNL1        0.0502
      9 C           4.4844   76.3511   25.7034 C.ar    1  UNL1        0.0443
     10 C           4.4172   76.5653   24.3248 C.ar    1  UNL1        0.1457
     11 F           3.6329   77.5632   23.8429 F       1  UNL1       -0.2040
     12 N           5.5956   75.2951   27.6555 N.pl3   1  UNL1       -0.3040
     13 C           4.6890   75.9219   28.6267 C.3     1  UNL1        0.1122
     14 C           5.3580   77.1793   29.1902 C.3     1  UNL1        0.1123
     15 N           6.7771   76.9278   29.4826 N.pl3   1  UNL1       -0.3011
     16 C           7.3117   75.5601   29.4444 C.3     1  UNL1        0.1123
     17 C           6.9343   74.8823   28.1171 C.3     1  UNL1        0.1122
     18 C           7.6627   78.0430   29.6623 C.ar    1  UNL1        0.0928
     19 C           7.9149   78.5367   30.9552 C.ar    1  UNL1        0.1485
     20 O           7.2898   77.9567   32.0568 O.3     1  UNL1       -0.5042
     21 C           8.8055   79.6032   31.1356 C.ar    1  UNL1        0.0493
     22 C           9.4465   80.1777   30.0352 C.ar    1  UNL1        0.0616
     23 CL         10.5693   81.5045   30.2698 Cl      1  UNL1       -0.0821
     24 C           9.1917   79.6957   28.7481 C.ar    1  UNL1        0.0242
     25 C           8.3023   78.6326   28.5561 C.ar    1  UNL1        0.0748
     26 CL          7.9825   78.0766   26.9193 Cl      1  UNL1       -0.0808
     27 H           7.4586   78.2929   32.9976 H       1  UNL1        0.2922
     28 C           7.7303   76.9164   21.9123 C.3     1  UNL1        0.1535
     29 C           8.3438   75.5623   21.6320 C.2     1  UNL1        0.2443
     30 O           8.0045   74.9195   20.6026 O.2     1  UNL1       -0.2730
     31 N           9.3427   75.0332   22.5198 N.am    1  UNL1       -0.2825
     32 H           9.6640   75.6430   23.3055 H       1  UNL1        0.1549
     33 C          10.0976   73.8378   22.2533 C.ar    1  UNL1        0.0535
     34 C           9.4740   72.5885   22.3742 C.ar    1  UNL1        0.0353
     35 C          10.2007   71.4239   22.1134 C.ar    1  UNL1        0.1002
     36 N          11.5007   71.5037   21.7251 N.ar    1  UNL1       -0.2422
     37 C          12.1261   72.7009   21.5766 C.ar    1  UNL1        0.1002
     38 C          11.4369   73.8888   21.8329 C.ar    1  UNL1        0.0353
     39 C           8.5291   78.0947   21.3093 C.3     1  UNL1        0.0569
     40 C           9.2121   78.9160   22.3688 C.ar    1  UNL1       -0.0017
     41 C           8.8553   80.1970   22.7788 C.ar    1  UNL1        0.0681
     42 N           9.6253   80.5921   23.8180 N.ar    1  UNL1       -0.3523
     43 C          10.4609   79.5702   24.0724 C.ar    1  UNL1        0.0563
     44 C          11.4235   79.4977   25.0787 C.ar    1  UNL1        0.0170
     45 C          12.1775   78.3149   25.1847 C.ar    1  UNL1        0.0015
     46 C          11.9568   77.2433   24.2922 C.ar    1  UNL1        0.0001
     47 C          10.9775   77.3428   23.2876 C.ar    1  UNL1        0.0012
     48 C          10.2422   78.5280   23.2077 C.ar    1  UNL1        0.0131
     49 H           9.5659   81.5006   24.3295 H       1  UNL1        0.1660
@<TRIPOS>BOND
     1     1     2    2
     2     2     3   am
     3     3    28    1
     4    28    39    1
     5    39    40    1
     6    40    41   ar
     7    41    42   ar
     8    42    43   ar
     9    43    44   ar
    10    44    45   ar
    11    45    46   ar
    12    46    47   ar
    13    47    48   ar
    14    28    29    1
    15    29    30    2
    16    29    31   am
    17    31    33    1
    18    33    34   ar
    19    34    35   ar
    20    35    36   ar
    21    36    37   ar
    22    37    38   ar
    23     2     5    1
    24     5     6   ar
    25     6     7   ar
    26     7     8   ar
    27     8    12    1
    28    12    13    1
    29    13    14    1
    30    14    15    1
    31    15    18    1
    32    18    19   ar
    33    19    20    1
    34    19    21   ar
    35    21    22   ar
    36    22    23    1
    37    22    24   ar
    38    24    25   ar
    39    25    26    1
    40    15    16    1
    41    16    17    1
    42     8     9   ar
    43     9    10   ar
    44    10    11    1
    45    48    40   ar
    46    38    33   ar
    47    10     5   ar
    48    48    43   ar
    49    17    12    1
    50    25    18   ar
    51     3     4    1
    52    42    49    1
    53    31    32    1
    54    20    27    1
@<TRIPOS>MOLECULE
*****
 49 54 0 0 0
SMALL
GASTEIGER

@<TRIPOS>ATOM
      1 O           8.1736   74.2812   20.8252 O.2     1  UNL1       -0.2701
      2 C           7.4286   75.1143   21.4061 C.2     1  UNL1        0.2483
      3 N           6.9794   76.2794   20.6906 N.am    1  UNL1       -0.2945
      4 H           6.9625   76.2151   19.6474 H       1  UNL1        0.1501
      5 C           7.0181   74.8575   22.7936 C.ar    1  UNL1        0.0808
      6 C           7.9769   74.5297   23.7605 C.ar    1  UNL1        0.0080
      7 C           7.6182   74.4626   25.1089 C.ar    1  UNL1        0.0148
      8 C           6.2893   74.6913   25.5067 C.ar    1  UNL1        0.0502
      9 C           5.3126   74.9054   24.5157 C.ar    1  UNL1        0.0443
     10 C           5.6740   74.9895   23.1690 C.ar    1  UNL1        0.1457
     11 F           4.7239   75.2685   22.2403 F       1  UNL1       -0.2040
     12 N           5.9673   74.8287   26.9085 N.pl3   1  UNL1       -0.3040
     13 C           4.8291   75.6425   27.3559 C.3     1  UNL1        0.1122
     14 C           5.3592   76.9414   27.9710 C.3     1  UNL1        0.1123
     15 N           6.5244   76.6746   28.8276 N.pl3   1  UNL1       -0.3011
     16 C           6.8874   75.2951   29.1782 C.3     1  UNL1        0.1123
     17 C           6.9773   74.4334   27.9082 C.3     1  UNL1        0.1122
     18 C           7.3851   77.7624   29.1966 C.ar    1  UNL1        0.0928
     19 C           7.3798   78.2432   30.5186 C.ar    1  UNL1        0.1485
     20 O           6.5254   77.6774   31.4624 O.3     1  UNL1       -0.5042
     21 C           8.2438   79.2821   30.8888 C.ar    1  UNL1        0.0493
     22 C           9.1132   79.8420   29.9494 C.ar    1  UNL1        0.0616
     23 CL         10.2007   81.1340   30.4230 Cl      1  UNL1       -0.0821
     24 C           9.1152   79.3729   28.6326 C.ar    1  UNL1        0.0242
     25 C           8.2548   78.3374   28.2513 C.ar    1  UNL1        0.0748
     26 CL          8.2629   77.7976   26.5782 Cl      1  UNL1       -0.0808
     27 H           6.5065   78.0047   32.4211 H       1  UNL1        0.2922
     28 C           6.8349   77.6224   21.2756 C.3     1  UNL1        0.1535
     29 C           8.1753   78.1956   21.6799 C.2     1  UNL1        0.2443
     30 O           8.9233   78.7183   20.8109 O.2     1  UNL1       -0.2730
     31 N           8.5717   78.1789   23.0614 N.am    1  UNL1       -0.2825
     32 H           7.8790   77.8251   23.7596 H       1  UNL1        0.1549
     33 C           9.7457   78.8407   23.5649 C.ar    1  UNL1        0.0535
     34 C           9.7703   80.2402   23.6353 C.ar    1  UNL1        0.0353
     35 C          10.9062   80.8888   24.1265 C.ar    1  UNL1        0.1002
     36 N          11.9745   80.1646   24.5526 N.ar    1  UNL1       -0.2422
     37 C          11.9717   78.8062   24.5185 C.ar    1  UNL1        0.1002
     38 C          10.8579   78.1192   24.0293 C.ar    1  UNL1        0.0353
     39 C           6.0214   78.5488   20.3427 C.3     1  UNL1        0.0569
     40 C           4.5910   78.1021   20.2090 C.ar    1  UNL1       -0.0017
     41 C           4.0433   77.3926   19.1446 C.ar    1  UNL1        0.0681
     42 N           2.7542   77.0750   19.4020 N.ar    1  UNL1       -0.3523
     43 C           2.4844   77.5717   20.6218 C.ar    1  UNL1        0.0563
     44 C           1.2875   77.4674   21.3295 C.ar    1  UNL1        0.0170
     45 C           1.2287   78.0420   22.6122 C.ar    1  UNL1        0.0015
     46 C           2.3538   78.7020   23.1527 C.ar    1  UNL1        0.0001
     47 C           3.5495   78.7905   22.4174 C.ar    1  UNL1        0.0012
     48 C           3.5797   78.2084   21.1477 C.ar    1  UNL1        0.0131
     49 H           2.1084   76.5354   18.7838 H       1  UNL1        0.1660
@<TRIPOS>BOND
     1     1     2    2
     2     2     3   am
     3     3    28    1
     4    28    39    1
     5    39    40    1
     6    40    41   ar
     7    41    42   ar
     8    42    43   ar
     9    43    44   ar
    10    44    45   ar
    11    45    46   ar
    12    46    47   ar
    13    47    48   ar
    14    28    29    1
    15    29    30    2
    16    29    31   am
    17    31    33    1
    18    33    34   ar
    19    34    35   ar
    20    35    36   ar
    21    36    37   ar
    22    37    38   ar
    23     2     5    1
    24     5     6   ar
    25     6     7   ar
    26     7     8   ar
    27     8    12    1
    28    12    13    1
    29    13    14    1
    30    14    15    1
    31    15    18    1
    32    18    19   ar
    33    19    20    1
    34    19    21   ar
    35    21    22   ar
    36    22    23    1
    37    22    24   ar
    38    24    25   ar
    39    25    26    1
    40    15    16    1
    41    16    17    1
    42     8     9   ar
    43     9    10   ar
    44    10    11    1
    45    48    40   ar
    46    38    33   ar
    47    10     5   ar
    48    48    43   ar
    49    17    12    1
    50    25    18   ar
    51     3     4    1
    52    42    49    1
    53    31    32    1
    54    20    27    1
@<TRIPOS>MOLECULE
*****
 49 54 0 0 0
SMALL
GASTEIGER

@<TRIPOS>ATOM
      1 O           9.5351   78.3407   20.1092 O.2     1  UNL1       -0.2701
      2 C           9.1657   77.6838   21.1183 C.2     1  UNL1        0.2483
      3 N           8.3066   76.5426   20.9425 N.am    1  UNL1       -0.2945
      4 H           8.3240   76.0788   20.0059 H       1  UNL1        0.1501
      5 C           9.6453   78.0885   22.4472 C.ar    1  UNL1        0.0808
      6 C           8.9609   79.0729   23.1711 C.ar    1  UNL1        0.0080
      7 C           9.3037   79.3310   24.5004 C.ar    1  UNL1        0.0148
      8 C          10.3565   78.6310   25.1154 C.ar    1  UNL1        0.0502
      9 C          11.1116   77.7276   24.3436 C.ar    1  UNL1        0.0443
     10 C          10.7581   77.4568   23.0196 C.ar    1  UNL1        0.1457
     11 F          11.4583   76.5280   22.3196 F       1  UNL1       -0.2040
     12 N          10.5684   78.7483   26.5398 N.pl3   1  UNL1       -0.3040
     13 C          11.0199   77.6041   27.3430 C.3     1  UNL1        0.1122
     14 C           9.8415   77.0839   28.1719 C.3     1  UNL1        0.1123
     15 N           9.0766   78.2002   28.7477 N.pl3   1  UNL1       -0.3011
     16 C           9.6030   79.5702   28.6865 C.3     1  UNL1        0.1123
     17 C          10.0079   79.9166   27.2444 C.3     1  UNL1        0.1122
     18 C           7.7495   77.9592   29.2385 C.ar    1  UNL1        0.0928
     19 C           7.4919   78.0165   30.6203 C.ar    1  UNL1        0.1485
     20 O           8.5279   78.2864   31.5116 O.3     1  UNL1       -0.5042
     21 C           6.1903   77.8153   31.0984 C.ar    1  UNL1        0.0493
     22 C           5.1455   77.5596   30.2069 C.ar    1  UNL1        0.0616
     23 CL          3.5166   77.3208   30.8116 Cl      1  UNL1       -0.0821
     24 C           5.3991   77.4932   28.8339 C.ar    1  UNL1        0.0242
     25 C           6.6956   77.6901   28.3456 C.ar    1  UNL1        0.0748
     26 CL          6.9806   77.5656   26.6152 Cl      1  UNL1       -0.0808
     27 H           8.3658   78.3361   32.5105 H       1  UNL1        0.2922
     28 C           7.2089   76.1681   21.8488 C.3     1  UNL1        0.1535
     29 C           5.8590   76.4529   21.2281 C.2     1  UNL1        0.2443
     30 O           5.2519   77.5214   21.5068 O.2     1  UNL1       -0.2730
     31 N           5.2935   75.5220   20.2902 N.am    1  UNL1       -0.2825
     32 H           5.8755   74.6987   20.0145 H       1  UNL1        0.1549
     33 C           4.1005   75.7791   19.5283 C.ar    1  UNL1        0.0535
     34 C           2.8781   75.2495   19.9636 C.ar    1  UNL1        0.0353
     35 C           1.7153   75.4985   19.2299 C.ar    1  UNL1        0.1002
     36 N           1.7667   76.2672   18.1103 N.ar    1  UNL1       -0.2422
     37 C           2.9326   76.8137   17.6760 C.ar    1  UNL1        0.1002
     38 C           4.1188   76.5845   18.3775 C.ar    1  UNL1        0.0353
     39 C           7.3690   74.7112   22.3410 C.3     1  UNL1        0.0569
     40 C           8.6118   74.5271   23.1686 C.ar    1  UNL1       -0.0017
     41 C           8.8431   75.0469   24.4385 C.ar    1  UNL1        0.0681
     42 N          10.0242   74.6010   24.9236 N.ar    1  UNL1       -0.3523
     43 C          10.5381   73.7993   23.9746 C.ar    1  UNL1        0.0563
     44 C          11.7326   73.0822   24.0319 C.ar    1  UNL1        0.0170
     45 C          12.0707   72.2770   22.9291 C.ar    1  UNL1        0.0015
     46 C          11.2184   72.2080   21.8055 C.ar    1  UNL1        0.0001
     47 C          10.0182   72.9405   21.7754 C.ar    1  UNL1        0.0012
     48 C           9.7068   73.7295   22.8856 C.ar    1  UNL1        0.0131
     49 H          10.4397   74.8215   25.8558 H       1  UNL1        0.1660
@<TRIPOS>BOND
     1     1     2    2
     2     2     3   am
     3     3    28    1
     4    28    39    1
     5    39    40    1
     6    40    41   ar
     7    41    42   ar
     8    42    43   ar
     9    43    44   ar
    10    44    45   ar
    11    45    46   ar
    12    46    47   ar
    13    47    48   ar
    14    28    29    1
    15    29    30    2
    16    29    31   am
    17    31    33    1
    18    33    34   ar
    19    34    35   ar
    20    35    36   ar
    21    36    37   ar
    22    37    38   ar
    23     2     5    1
    24     5     6   ar
    25     6     7   ar
    26     7     8   ar
    27     8    12    1
    28    12    13    1
    29    13    14    1
    30    14    15    1
    31    15    18    1
    32    18    19   ar
    33    19    20    1
    34    19    21   ar
    35    21    22   ar
    36    22    23    1
    37    22    24   ar
    38    24    25   ar
    39    25    26    1
    40    15    16    1
    41    16    17    1
    42     8     9   ar
    43     9    10   ar
    44    10    11    1
    45    48    40   ar
    46    38    33   ar
    47    10     5   ar
    48    48    43   ar
    49    17    12    1
    50    25    18   ar
    51     3     4    1
    52    42    49    1
    53    31    32    1
    54    20    27    1
@<TRIPOS>MOLECULE
*****
 49 54 0 0 0
SMALL
GASTEIGER

@<TRIPOS>ATOM
      1 O           6.2706   74.7682   28.8508 O.2     1  UNL1       -0.2701
      2 C           6.6860   75.1387   27.7210 C.2     1  UNL1        0.2483
      3 N           8.1027   75.2124   27.4787 N.am    1  UNL1       -0.2945
      4 H           8.7161   74.6190   28.0822 H       1  UNL1        0.1501
      5 C           5.7081   75.4611   26.6724 C.ar    1  UNL1        0.0808
      6 C           4.8041   76.5151   26.8552 C.ar    1  UNL1        0.0080
      7 C           3.9986   76.9394   25.7958 C.ar    1  UNL1        0.0148
      8 C           4.0625   76.2956   24.5476 C.ar    1  UNL1        0.0502
      9 C           4.8896   75.1647   24.4099 C.ar    1  UNL1        0.0443
     10 C           5.7078   74.7510   25.4638 C.ar    1  UNL1        0.1457
     11 F           6.5494   73.7015   25.2816 F       1  UNL1       -0.2040
     12 N           3.3888   76.8665   23.4039 N.pl3   1  UNL1       -0.3040
     13 C           2.9926   76.0382   22.2572 C.3     1  UNL1        0.1122
     14 C           3.9359   76.3285   21.0858 C.3     1  UNL1        0.1123
     15 N           4.1899   77.7721   20.9670 N.pl3   1  UNL1       -0.3011
     16 C           3.3996   78.7316   21.7496 C.3     1  UNL1        0.1123
     17 C           3.4020   78.3316   23.2340 C.3     1  UNL1        0.1122
     18 C           5.3104   78.2237   20.1918 C.ar    1  UNL1        0.0928
     19 C           5.1016   78.7847   18.9188 C.ar    1  UNL1        0.1485
     20 O           3.8109   78.8824   18.4035 O.3     1  UNL1       -0.5042
     21 C           6.1909   79.2573   18.1751 C.ar    1  UNL1        0.0493
     22 C           7.4853   79.1754   18.6945 C.ar    1  UNL1        0.0616
     23 CL          8.8428   79.7801   17.7631 Cl      1  UNL1       -0.0821
     24 C           7.6977   78.6106   19.9554 C.ar    1  UNL1        0.0242
     25 C           6.6173   78.1332   20.7057 C.ar    1  UNL1        0.0748
     26 CL          6.9284   77.3994   22.2727 Cl      1  UNL1       -0.0808
     27 H           3.6358   79.2858   17.4907 H       1  UNL1        0.2922
     28 C           8.7664   76.2542   26.6781 C.3     1  UNL1        0.1535
     29 C           9.1461   75.7390   25.3074 C.2     1  UNL1        0.2443
     30 O           8.3196   75.8085   24.3587 O.2     1  UNL1       -0.2730
     31 N          10.4637   75.2103   25.0828 N.am    1  UNL1       -0.2825
     32 H          11.1473   75.2627   25.8718 H       1  UNL1        0.1549
     33 C          10.9705   74.8493   23.7856 C.ar    1  UNL1        0.0535
     34 C          11.3849   73.5312   23.5508 C.ar    1  UNL1        0.0353
     35 C          11.8748   73.1734   22.2922 C.ar    1  UNL1        0.1002
     36 N          11.9305   74.0949   21.2947 N.ar    1  UNL1       -0.2422
     37 C          11.5145   75.3744   21.4849 C.ar    1  UNL1        0.1002
     38 C          11.0233   75.7745   22.7300 C.ar    1  UNL1        0.0353
     39 C           7.9205   77.5477   26.6409 C.3     1  UNL1        0.0569
     40 C           8.7748   78.7844   26.7065 C.ar    1  UNL1       -0.0017
     41 C           9.1877   79.4428   27.8608 C.ar    1  UNL1        0.0681
     42 N          10.0247   80.4590   27.5514 N.ar    1  UNL1       -0.3523
     43 C          10.1495   80.4446   26.2129 C.ar    1  UNL1        0.0563
     44 C          10.9369   81.2878   25.4297 C.ar    1  UNL1        0.0170
     45 C          10.9413   81.0804   24.0384 C.ar    1  UNL1        0.0015
     46 C          10.1665   80.0478   23.4665 C.ar    1  UNL1        0.0001
     47 C           9.3828   79.2105   24.2807 C.ar    1  UNL1        0.0012
     48 C           9.4000   79.4381   25.6590 C.ar    1  UNL1        0.0131
     49 H          10.4930   81.1086   28.2216 H       1  UNL1        0.1660
@<TRIPOS>BOND
     1     1     2    2
     2     2     3   am
     3     3    28    1
     4    28    39    1
     5    39    40    1
     6    40    41   ar
     7    41    42   ar
     8    42    43   ar
     9    43    44   ar
    10    44    45   ar
    11    45    46   ar
    12    46    47   ar
    13    47    48   ar
    14    28    29    1
    15    29    30    2
    16    29    31   am
    17    31    33    1
    18    33    34   ar
    19    34    35   ar
    20    35    36   ar
    21    36    37   ar
    22    37    38   ar
    23     2     5    1
    24     5     6   ar
    25     6     7   ar
    26     7     8   ar
    27     8    12    1
    28    12    13    1
    29    13    14    1
    30    14    15    1
    31    15    18    1
    32    18    19   ar
    33    19    20    1
    34    19    21   ar
    35    21    22   ar
    36    22    23    1
    37    22    24   ar
    38    24    25   ar
    39    25    26    1
    40    15    16    1
    41    16    17    1
    42     8     9   ar
    43     9    10   ar
    44    10    11    1
    45    48    40   ar
    46    38    33   ar
    47    10     5   ar
    48    48    43   ar
    49    17    12    1
    50    25    18   ar
    51     3     4    1
    52    42    49    1
    53    31    32    1
    54    20    27    1
@<TRIPOS>MOLECULE
*****
 49 54 0 0 0
SMALL
GASTEIGER

@<TRIPOS>ATOM
      1 O           5.7152   76.7845   29.9458 O.2     1  UNL1       -0.2701
      2 C           6.7729   76.7882   29.2621 C.2     1  UNL1        0.2483
      3 N           8.0081   77.2017   29.8741 N.am    1  UNL1       -0.2945
      4 H           8.0693   77.1214   30.9144 H       1  UNL1        0.1501
      5 C           6.7185   76.3440   27.8623 C.ar    1  UNL1        0.0808
      6 C           6.5997   77.2843   26.8312 C.ar    1  UNL1        0.0080
      7 C           6.7289   76.8841   25.4991 C.ar    1  UNL1        0.0148
      8 C           6.9470   75.5331   25.1772 C.ar    1  UNL1        0.0502
      9 C           6.9488   74.5811   26.2143 C.ar    1  UNL1        0.0443
     10 C           6.8369   74.9832   27.5474 C.ar    1  UNL1        0.1457
     11 F           6.9140   74.0526   28.5329 F       1  UNL1       -0.2040
     12 N           7.2881   75.1578   23.8242 N.pl3   1  UNL1       -0.3040
     13 C           7.7582   76.1517   22.8500 C.3     1  UNL1        0.1122
     14 C           6.6356   76.4321   21.8462 C.3     1  UNL1        0.1123
     15 N           5.9735   75.1825   21.4427 N.pl3   1  UNL1       -0.3011
     16 C           6.5516   73.8836   21.8119 C.3     1  UNL1        0.1123
     17 C           6.8429   73.8447   23.3209 C.3     1  UNL1        0.1122
     18 C           4.6853   75.2452   20.8126 C.ar    1  UNL1        0.0928
     19 C           4.5500   74.8931   19.4574 C.ar    1  UNL1        0.1485
     20 O           5.6683   74.5040   18.7235 O.3     1  UNL1       -0.5042
     21 C           3.2877   74.9209   18.8500 C.ar    1  UNL1        0.0493
     22 C           2.1611   75.2956   19.5864 C.ar    1  UNL1        0.0616
     23 CL          0.5824   75.3164   18.8226 Cl      1  UNL1       -0.0821
     24 C           2.2929   75.6547   20.9308 C.ar    1  UNL1        0.0242
     25 C           3.5491   75.6328   21.5469 C.ar    1  UNL1        0.0748
     26 CL          3.6793   76.1233   23.2302 Cl      1  UNL1       -0.0808
     27 H           5.5947   74.2426   17.7474 H       1  UNL1        0.2922
     28 C           9.0544   77.9930   29.2064 C.3     1  UNL1        0.1535
     29 C           9.5320   79.1289   30.0838 C.2     1  UNL1        0.2443
     30 O          10.7575   79.2412   30.3551 O.2     1  UNL1       -0.2730
     31 N           8.5906   80.1001   30.5704 N.am    1  UNL1       -0.2825
     32 H           7.6018   80.0234   30.2402 H       1  UNL1        0.1549
     33 C           8.9675   81.2987   31.2710 C.ar    1  UNL1        0.0535
     34 C           8.7101   81.4031   32.6447 C.ar    1  UNL1        0.0353
     35 C           9.0769   82.5632   33.3315 C.ar    1  UNL1        0.1002
     36 N           9.6985   83.5775   32.6740 N.ar    1  UNL1       -0.2422
     37 C           9.9824   83.4963   31.3477 C.ar    1  UNL1        0.1002
     38 C           9.6273   82.3560   30.6229 C.ar    1  UNL1        0.0353
     39 C          10.1955   77.0838   28.6951 C.3     1  UNL1        0.0569
     40 C          10.3170   77.1174   27.1959 C.ar    1  UNL1       -0.0017
     41 C          10.3952   76.0163   26.3486 C.ar    1  UNL1        0.0681
     42 N          10.3968   76.4139   25.0560 N.ar    1  UNL1       -0.3523
     43 C          10.3138   77.7556   25.0787 C.ar    1  UNL1        0.0563
     44 C          10.2522   78.6158   23.9830 C.ar    1  UNL1        0.0170
     45 C          10.1409   79.9954   24.2345 C.ar    1  UNL1        0.0015
     46 C          10.0959   80.4797   25.5600 C.ar    1  UNL1        0.0001
     47 C          10.1578   79.5890   26.6467 C.ar    1  UNL1        0.0012
     48 C          10.2653   78.2244   26.3669 C.ar    1  UNL1        0.0131
     49 H          10.4347   75.7985   24.2132 H       1  UNL1        0.1660
@<TRIPOS>BOND
     1     1     2    2
     2     2     3   am
     3     3    28    1
     4    28    39    1
     5    39    40    1
     6    40    41   ar
     7    41    42   ar
     8    42    43   ar
     9    43    44   ar
    10    44    45   ar
    11    45    46   ar
    12    46    47   ar
    13    47    48   ar
    14    28    29    1
    15    29    30    2
    16    29    31   am
    17    31    33    1
    18    33    34   ar
    19    34    35   ar
    20    35    36   ar
    21    36    37   ar
    22    37    38   ar
    23     2     5    1
    24     5     6   ar
    25     6     7   ar
    26     7     8   ar
    27     8    12    1
    28    12    13    1
    29    13    14    1
    30    14    15    1
    31    15    18    1
    32    18    19   ar
    33    19    20    1
    34    19    21   ar
    35    21    22   ar
    36    22    23    1
    37    22    24   ar
    38    24    25   ar
    39    25    26    1
    40    15    16    1
    41    16    17    1
    42     8     9   ar
    43     9    10   ar
    44    10    11    1
    45    48    40   ar
    46    38    33   ar
    47    10     5   ar
    48    48    43   ar
    49    17    12    1
    50    25    18   ar
    51     3     4    1
    52    42    49    1
    53    31    32    1
    54    20    27    1
@<TRIPOS>MOLECULE
*****
 49 54 0 0 0
SMALL
GASTEIGER

@<TRIPOS>ATOM
      1 O           8.6220   79.0924   19.4174 O.2     1  UNL1       -0.2701
      2 C           8.4801   78.2930   20.3802 C.2     1  UNL1        0.2483
      3 N           7.6248   77.1459   20.2256 N.am    1  UNL1       -0.2945
      4 H           7.4580   76.8097   19.2501 H       1  UNL1        0.1501
      5 C           9.2149   78.5424   21.6282 C.ar    1  UNL1        0.0808
      6 C           9.0790   79.7692   22.2901 C.ar    1  UNL1        0.0080
      7 C           9.6291   79.9442   23.5620 C.ar    1  UNL1        0.0148
      8 C          10.3502   78.9060   24.1774 C.ar    1  UNL1        0.0502
      9 C          10.5791   77.7193   23.4553 C.ar    1  UNL1        0.0443
     10 C          10.0145   77.5377   22.1906 C.ar    1  UNL1        0.1457
     11 F          10.1903   76.3560   21.5458 F       1  UNL1       -0.2040
     12 N          10.7330   79.0156   25.5663 N.pl3   1  UNL1       -0.3040
     13 C          11.2629   77.8630   26.3071 C.3     1  UNL1        0.1122
     14 C          10.1859   77.3545   27.2704 C.3     1  UNL1        0.1123
     15 N           9.5100   78.4781   27.9361 N.pl3   1  UNL1       -0.3011
     16 C          10.0427   79.8417   27.8150 C.3     1  UNL1        0.1123
     17 C          10.2760   80.1882   26.3355 C.3     1  UNL1        0.1122
     18 C           8.2483   78.2519   28.5822 C.ar    1  UNL1        0.0928
     19 C           8.1731   78.2349   29.9867 C.ar    1  UNL1        0.1485
     20 O           9.3251   78.4169   30.7486 O.3     1  UNL1       -0.5042
     21 C           6.9367   78.0483   30.6190 C.ar    1  UNL1        0.0493
     22 C           5.7765   77.8808   29.8590 C.ar    1  UNL1        0.0616
     23 CL          4.2306   77.6599   30.6574 Cl      1  UNL1       -0.0821
     24 C           5.8486   77.8883   28.4631 C.ar    1  UNL1        0.0242
     25 C           7.0784   78.0715   27.8211 C.ar    1  UNL1        0.0748
     26 CL          7.1333   78.0414   26.0642 Cl      1  UNL1       -0.0808
     27 H           9.2949   78.4121   31.7613 H       1  UNL1        0.2922
     28 C           6.7440   76.6056   21.2739 C.3     1  UNL1        0.1535
     29 C           5.3192   77.0826   21.0977 C.2     1  UNL1        0.2443
     30 O           4.6946   76.8180   20.0357 O.2     1  UNL1       -0.2730
     31 N           4.6696   77.8000   22.1605 N.am    1  UNL1       -0.2825
     32 H           5.1914   77.9109   23.0593 H       1  UNL1        0.1549
     33 C           3.2743   78.1505   22.1531 C.ar    1  UNL1        0.0535
     34 C           2.8283   79.1832   21.3172 C.ar    1  UNL1        0.0353
     35 C           1.4739   79.5261   21.3028 C.ar    1  UNL1        0.1002
     36 N           0.5902   78.8476   22.0814 N.ar    1  UNL1       -0.2422
     37 C           0.9884   77.8266   22.8847 C.ar    1  UNL1        0.1002
     38 C           2.3345   77.4560   22.9327 C.ar    1  UNL1        0.0353
     39 C           6.8747   75.0681   21.3699 C.3     1  UNL1        0.0569
     40 C           7.2659   74.6187   22.7513 C.ar    1  UNL1       -0.0017
     41 C           8.4767   74.0404   23.1199 C.ar    1  UNL1        0.0681
     42 N           8.5227   73.8529   24.4584 N.ar    1  UNL1       -0.3523
     43 C           7.3548   74.3133   24.9396 C.ar    1  UNL1        0.0563
     44 C           6.9517   74.3604   26.2736 C.ar    1  UNL1        0.0170
     45 C           5.6893   74.9105   26.5610 C.ar    1  UNL1        0.0015
     46 C           4.8663   75.3946   25.5208 C.ar    1  UNL1        0.0001
     47 C           5.2991   75.3366   24.1839 C.ar    1  UNL1        0.0012
     48 C           6.5582   74.7876   23.9286 C.ar    1  UNL1        0.0131
     49 H           9.3154   73.4499   25.0058 H       1  UNL1        0.1660
@<TRIPOS>BOND
     1     1     2    2
     2     2     3   am
     3     3    28    1
     4    28    39    1
     5    39    40    1
     6    40    41   ar
     7    41    42   ar
     8    42    43   ar
     9    43    44   ar
    10    44    45   ar
    11    45    46   ar
    12    46    47   ar
    13    47    48   ar
    14    28    29    1
    15    29    30    2
    16    29    31   am
    17    31    33    1
    18    33    34   ar
    19    34    35   ar
    20    35    36   ar
    21    36    37   ar
    22    37    38   ar
    23     2     5    1
    24     5     6   ar
    25     6     7   ar
    26     7     8   ar
    27     8    12    1
    28    12    13    1
    29    13    14    1
    30    14    15    1
    31    15    18    1
    32    18    19   ar
    33    19    20    1
    34    19    21   ar
    35    21    22   ar
    36    22    23    1
    37    22    24   ar
    38    24    25   ar
    39    25    26    1
    40    15    16    1
    41    16    17    1
    42     8     9   ar
    43     9    10   ar
    44    10    11    1
    45    48    40   ar
    46    38    33   ar
    47    10     5   ar
    48    48    43   ar
    49    17    12    1
    50    25    18   ar
    51     3     4    1
    52    42    49    1
    53    31    32    1
    54    20    27    1
