@<TRIPOS>MOLECULE
*****
 39 43 0 0 0
SMALL
GASTEIGER

@<TRIPOS>ATOM
      1 C          50.0976   11.8540  -21.7293 C.2     1  UNL1        0.2511
      2 O          51.2050   12.2146  -22.2120 O.2     1  UNL1       -0.2698
      3 N          49.1245   11.1876  -22.5623 N.am    1  UNL1       -0.2612
      4 C          48.2079   10.1976  -21.9841 C.3     1  UNL1        0.1420
      5 C          46.8702   10.8495  -21.6568 C.3     1  UNL1        0.2268
      6 O          46.6137   11.9659  -22.5041 O.3     1  UNL1       -0.4738
      7 C          46.6184   11.8908  -23.8998 C.ar    1  UNL1        0.1370
      8 C          45.4243   12.1921  -24.5614 C.ar    1  UNL1        0.0367
      9 C          45.3528   12.1719  -25.9522 C.ar    1  UNL1        0.0031
     10 C          46.4892   11.8742  -26.7157 C.ar    1  UNL1        0.0000
     11 C          47.6976   11.5926  -26.0567 C.ar    1  UNL1        0.0012
     12 C          47.7833   11.5663  -24.6487 C.ar    1  UNL1        0.0398
     13 C          49.1636   11.3554  -24.0236 C.3     1  UNL1        0.1461
     14 S          50.0046    9.9039  -24.7590 S.3     1  UNL1       -0.1446
     15 H          51.2215   10.1720  -24.1050 H       1  UNL1        0.1042
     16 C          46.4220   11.8713  -28.1992 C.ar    1  UNL1        0.0015
     17 C          46.6865   10.6797  -28.9311 C.ar    1  UNL1        0.0016
     18 C          46.6252   10.6680  -30.3373 C.ar    1  UNL1        0.0206
     19 C          46.2986   11.8565  -30.9815 C.ar    1  UNL1        0.0985
     20 N          46.1863   12.0724  -32.3044 N.ar    1  UNL1       -0.2241
     21 C          45.8556   13.3894  -32.3682 C.ar    1  UNL1        0.1750
     22 N          45.7618   13.9827  -31.1538 N.ar    1  UNL1       -0.3349
     23 C          46.0436   13.0000  -30.2904 C.ar    1  UNL1        0.0757
     24 C          46.0926   13.0570  -28.9006 C.ar    1  UNL1        0.0185
     25 H          45.5239   14.9775  -30.9437 H       1  UNL1        0.1675
     26 C          48.9403   13.1483  -19.9009 C.ar    1  UNL1        0.0503
     27 C          48.6802   13.3121  -18.5246 C.ar    1  UNL1        0.0328
     28 C          49.3061   12.4975  -17.5730 C.ar    1  UNL1        0.1069
     29 C          50.1939   11.5012  -17.9885 C.ar    1  UNL1        0.0186
     30 C          50.4560   11.3181  -19.3454 C.ar    1  UNL1        0.0071
     31 C          49.8265   12.1212  -20.3060 C.ar    1  UNL1        0.0668
     32 S          48.9511   12.7135  -15.8619 S.O2    1  UNL1        0.0105
     33 C          50.4757   12.8687  -14.9603 C.3     1  UNL1        0.1816
     34 O          48.1804   11.5284  -15.3514 O.2     1  UNL1       -0.1686
     35 O          48.1223   13.9512  -15.6603 O.2     1  UNL1       -0.1686
     36 N          48.3346   14.0185  -20.8845 N.pl3   1  UNL1       -0.3325
     37 H          47.3084   13.9503  -21.0669 H       1  UNL1        0.1468
     38 C          48.4746   15.1825  -23.0419 C.3     1  UNL1        0.0229
     39 C          49.0495   15.0502  -21.6359 C.3     1  UNL1        0.0871
@<TRIPOS>BOND
     1    38    39    1
     2    39    36    1
     3    36    26    1
     4    26    27   ar
     5    27    28   ar
     6    28    32    1
     7    32    33    1
     8    32    34    2
     9    32    35    2
    10    28    29   ar
    11    29    30   ar
    12    30    31   ar
    13    31     1    1
    14     1     2    2
    15     1     3   am
    16     3     4    1
    17     4     5    1
    18     5     6    1
    19     6     7    1
    20     7     8   ar
    21     8     9   ar
    22     9    10   ar
    23    10    16    1
    24    16    17   ar
    25    17    18   ar
    26    18    19   ar
    27    19    20   ar
    28    20    21   ar
    29    21    22   ar
    30    22    23   ar
    31    23    24   ar
    32    10    11   ar
    33    11    12   ar
    34    12    13    1
    35    13    14    1
    36    31    26   ar
    37    13     3    1
    38    12     7   ar
    39    24    16   ar
    40    23    19   ar
    41    36    37    1
    42    22    25    1
    43    14    15    1
@<TRIPOS>MOLECULE
*****
 39 43 0 0 0
SMALL
GASTEIGER

@<TRIPOS>ATOM
      1 C          50.0461   12.0400  -21.4428 C.2     1  UNL1        0.2511
      2 O          51.1132   12.5212  -21.9109 O.2     1  UNL1       -0.2698
      3 N          49.1392   11.3139  -22.3002 N.am    1  UNL1       -0.2612
      4 C          48.3221   10.2212  -21.7586 C.3     1  UNL1        0.1420
      5 C          46.9292   10.7309  -21.4103 C.3     1  UNL1        0.2268
      6 O          46.5658   11.8471  -22.2179 O.3     1  UNL1       -0.4738
      7 C          46.5748   11.8221  -23.6154 C.ar    1  UNL1        0.1370
      8 C          45.3561   12.0316  -24.2675 C.ar    1  UNL1        0.0367
      9 C          45.2841   12.0538  -25.6582 C.ar    1  UNL1        0.0031
     10 C          46.4421   11.8928  -26.4302 C.ar    1  UNL1        0.0000
     11 C          47.6731   11.7044  -25.7800 C.ar    1  UNL1        0.0012
     12 C          47.7638   11.6366  -24.3737 C.ar    1  UNL1        0.0398
     13 C          49.1592   11.5361  -23.7546 C.3     1  UNL1        0.1461
     14 S          50.1330   10.1982  -24.5398 S.3     1  UNL1       -0.1446
     15 H          51.3202   10.5576  -23.8750 H       1  UNL1        0.1042
     16 C          46.3725   11.9360  -27.9130 C.ar    1  UNL1        0.0015
     17 C          46.6029   10.7600  -28.6807 C.ar    1  UNL1        0.0016
     18 C          46.5390   10.7918  -30.0864 C.ar    1  UNL1        0.0206
     19 C          46.2443   12.0075  -30.6943 C.ar    1  UNL1        0.0985
     20 N          46.1359   12.2658  -32.0099 N.ar    1  UNL1       -0.2241
     21 C          45.8415   13.5927  -32.0337 C.ar    1  UNL1        0.1750
     22 N          45.7661   14.1518  -30.8019 N.ar    1  UNL1       -0.3349
     23 C          46.0221   13.1365  -29.9689 C.ar    1  UNL1        0.0757
     24 C          46.0749   13.1507  -28.5781 C.ar    1  UNL1        0.0185
     25 H          45.5560   15.1461  -30.5618 H       1  UNL1        0.1675
     26 C          50.7853   12.2583  -19.0420 C.ar    1  UNL1        0.0503
     27 C          50.4412   12.5026  -17.6964 C.ar    1  UNL1        0.0328
     28 C          49.1054   12.6840  -17.3178 C.ar    1  UNL1        0.1069
     29 C          48.0969   12.6326  -18.2842 C.ar    1  UNL1        0.0186
     30 C          48.4188   12.4019  -19.6208 C.ar    1  UNL1        0.0071
     31 C          49.7537   12.2297  -20.0113 C.ar    1  UNL1        0.0668
     32 S          48.7054   13.0031  -15.6329 S.O2    1  UNL1        0.0105
     33 C          50.1858   13.4385  -14.7497 C.3     1  UNL1        0.1816
     34 O          48.0919   11.7768  -15.0175 O.2     1  UNL1       -0.1686
     35 O          47.7185   14.1332  -15.5432 O.2     1  UNL1       -0.1686
     36 N          52.1580   12.0216  -19.4311 N.pl3   1  UNL1       -0.3325
     37 H          52.4395   11.0735  -19.7668 H       1  UNL1        0.1468
     38 C          52.6375   14.3932  -19.8486 C.3     1  UNL1        0.0229
     39 C          53.2083   13.0399  -19.4392 C.3     1  UNL1        0.0871
@<TRIPOS>BOND
     1    38    39    1
     2    39    36    1
     3    36    26    1
     4    26    27   ar
     5    27    28   ar
     6    28    32    1
     7    32    33    1
     8    32    34    2
     9    32    35    2
    10    28    29   ar
    11    29    30   ar
    12    30    31   ar
    13    31     1    1
    14     1     2    2
    15     1     3   am
    16     3     4    1
    17     4     5    1
    18     5     6    1
    19     6     7    1
    20     7     8   ar
    21     8     9   ar
    22     9    10   ar
    23    10    16    1
    24    16    17   ar
    25    17    18   ar
    26    18    19   ar
    27    19    20   ar
    28    20    21   ar
    29    21    22   ar
    30    22    23   ar
    31    23    24   ar
    32    10    11   ar
    33    11    12   ar
    34    12    13    1
    35    13    14    1
    36    31    26   ar
    37    13     3    1
    38    12     7   ar
    39    24    16   ar
    40    23    19   ar
    41    36    37    1
    42    22    25    1
    43    14    15    1
