@<TRIPOS>MOLECULE
*****
 53 59 0 0 0
SMALL
GASTEIGER

@<TRIPOS>ATOM
      1 C          60.5337   86.8971   10.0694 C.ar    1  UNL1        0.0481
      2 C          61.7456   86.6548   10.7346 C.ar    1  UNL1        0.0176
      3 C          61.7849   85.8193   11.8547 C.ar    1  UNL1        0.0382
      4 C          60.6069   85.2105   12.3269 C.ar    1  UNL1        0.1388
      5 C          59.3998   85.4526   11.6624 C.ar    1  UNL1        0.0382
      6 C          59.3603   86.2869   10.5419 C.ar    1  UNL1        0.0176
      7 N          59.9708   89.5979    6.9058 N.pl3   1  UNL1       -0.3041
      8 C          59.1708   88.3680    6.9404 C.3     1  UNL1        0.1122
      9 C          59.9510   87.2585    7.6465 C.3     1  UNL1        0.1122
     10 N          60.5021   87.7552    8.9134 N.pl3   1  UNL1       -0.3041
     11 C          61.3001   88.9868    8.8785 C.3     1  UNL1        0.1122
     12 C          60.5188   90.0957    8.1732 C.3     1  UNL1        0.1122
     13 C          59.9499   92.1218    3.4768 C.ar    1  UNL1        0.0659
     14 C          58.7926   91.9617    4.2524 C.ar    1  UNL1        0.0187
     15 C          58.7945   91.1323    5.3726 C.ar    1  UNL1        0.0160
     16 C          59.9583   90.4472    5.7431 C.ar    1  UNL1        0.0477
     17 C          61.1140   90.5858    4.9619 C.ar    1  UNL1        0.0117
     18 C          61.1264   91.4044    3.8139 C.ar    1  UNL1       -0.0050
     19 N          59.7295   93.8650    0.3176 N.ar    1  UNL1       -0.2024
     20 N          59.6590   94.8893    1.1564 N.ar    1  UNL1       -0.1442
     21 C          59.7640   94.3732    2.4009 C.ar    1  UNL1        0.2073
     22 N          59.9122   93.0315    2.3670 N.ar    1  UNL1       -0.2401
     23 C          59.8688   92.7456    1.0549 C.ar    1  UNL1        0.3522
     24 O          59.9476   91.5802    0.5804 O.2     1  UNL1       -0.2444
     25 C          59.6408   93.9967   -1.1413 C.3     1  UNL1        0.1099
     26 C          60.9965   93.6734   -1.7841 C.3     1  UNL1        0.0265
     27 C          57.1383   93.4735   -1.1000 C.3     1  UNL1        0.0021
     28 C          58.5020   93.1102   -1.6873 C.3     1  UNL1        0.0245
     29 C          62.3837   91.4721    2.9547 C.3     1  UNL1        0.0238
     30 C          63.4740   90.5282    3.4799 C.3     1  UNL1        0.0047
     31 C          62.9024   92.9113    2.8575 C.3     1  UNL1        0.0047
     32 O          60.5935   84.3627   13.4436 O.3     1  UNL1       -0.4727
     33 C          60.6024   84.8108   14.7968 C.3     1  UNL1        0.2374
     34 C          61.8594   85.6497   15.0467 C.3     1  UNL1        0.1909
     35 C          62.0846   85.9200   16.5070 C.3     1  UNL1        0.1783
     36 O          61.5741   87.1918   16.7386 O.3     1  UNL1       -0.3266
     37 C          61.5735   87.8460   15.4835 C.3     1  UNL1        0.2315
     38 O          61.7135   86.8979   14.4440 O.3     1  UNL1       -0.3254
     39 C          62.7118   88.8741   15.4508 C.ar    1  UNL1        0.0410
     40 C          62.8029   89.7982   16.5153 C.ar    1  UNL1        0.0022
     41 C          63.7881   90.7858   16.5330 C.ar    1  UNL1        0.0113
     42 C          64.6964   90.8867   15.4820 C.ar    1  UNL1        0.0585
     43 CL         65.9295   92.1340   15.5037 Cl      1  UNL1       -0.0822
     44 C          64.6143   90.0038   14.4055 C.ar    1  UNL1        0.0226
     45 C          63.6311   89.0061   14.3700 C.ar    1  UNL1        0.0591
     46 CL         63.6059   87.9921   12.9285 Cl      1  UNL1       -0.0824
     47 C          60.2142   88.5599   15.3332 C.3     1  UNL1        0.1911
     48 N          59.9690   88.9880   13.9556 N.ar    1  UNL1       -0.2116
     49 N          60.7970   89.7291   13.2411 N.ar    1  UNL1       -0.0430
     50 N          60.2700   89.9177   12.0402 N.ar    1  UNL1       -0.0230
     51 N          59.0979   89.3017   11.9551 N.ar    1  UNL1       -0.1127
     52 C          58.9173   88.7246   13.1576 C.ar    1  UNL1        0.1615
     53 C          57.7355   87.8817   13.5150 C.3     1  UNL1        0.0754
@<TRIPOS>BOND
     1    27    28    1
     2    28    25    1
     3    25    26    1
     4    25    19    1
     5    19    20   ar
     6    20    21   ar
     7    21    22   ar
     8    22    13    1
     9    13    14   ar
    10    14    15   ar
    11    15    16   ar
    12    16     7    1
    13     7     8    1
    14     8     9    1
    15     9    10    1
    16    10     1    1
    17     1     2   ar
    18     2     3   ar
    19     3     4   ar
    20     4    32    1
    21    32    33    1
    22    33    34    1
    23    34    35    1
    24    35    36    1
    25    36    37    1
    26    37    47    1
    27    47    48    1
    28    48    49   ar
    29    49    50   ar
    30    50    51   ar
    31    51    52   ar
    32    52    53    1
    33    37    39    1
    34    39    40   ar
    35    40    41   ar
    36    41    42   ar
    37    42    43    1
    38    42    44   ar
    39    44    45   ar
    40    45    46    1
    41    37    38    1
    42     4     5   ar
    43     5     6   ar
    44    10    11    1
    45    11    12    1
    46    16    17   ar
    47    17    18   ar
    48    18    29    1
    49    29    30    1
    50    29    31    1
    51    22    23   ar
    52    23    24    2
    53    23    19   ar
    54    18    13   ar
    55    12     7    1
    56     6     1   ar
    57    38    34    1
    58    52    48   ar
    59    45    39   ar
@<TRIPOS>MOLECULE
*****
 53 59 0 0 0
SMALL
GASTEIGER

@<TRIPOS>ATOM
      1 C          60.4910   87.4040   10.2026 C.ar    1  UNL1        0.0481
      2 C          61.7086   86.9598   10.7410 C.ar    1  UNL1        0.0176
      3 C          61.7288   86.1872   11.9059 C.ar    1  UNL1        0.0382
      4 C          60.5254   85.8454   12.5512 C.ar    1  UNL1        0.1388
      5 C          59.3125   86.2886   12.0129 C.ar    1  UNL1        0.0382
      6 C          59.2918   87.0601   10.8477 C.ar    1  UNL1        0.0176
      7 N          59.9673   89.9038    6.8714 N.pl3   1  UNL1       -0.3041
      8 C          59.2107   88.6484    6.9431 C.3     1  UNL1        0.1122
      9 C          59.9990   87.6096    7.7416 C.3     1  UNL1        0.1122
     10 N          60.4780   88.1955    8.9996 N.pl3   1  UNL1       -0.3041
     11 C          61.2327   89.4526    8.9275 C.3     1  UNL1        0.1122
     12 C          60.4431   90.4908    8.1299 C.3     1  UNL1        0.1122
     13 C          60.0032   92.2324    3.3070 C.ar    1  UNL1        0.0659
     14 C          58.8357   92.1223    4.0761 C.ar    1  UNL1        0.0187
     15 C          58.8190   91.3569    5.2408 C.ar    1  UNL1        0.0160
     16 C          59.9740   90.6870    5.6632 C.ar    1  UNL1        0.0477
     17 C          61.1398   90.7751    4.8896 C.ar    1  UNL1        0.0117
     18 C          61.1710   91.5282    3.6980 C.ar    1  UNL1       -0.0050
     19 N          59.7435   93.8156    0.0675 N.ar    1  UNL1       -0.2024
     20 N          59.8501   94.8851    0.8438 N.ar    1  UNL1       -0.1442
     21 C          59.9894   94.4285    2.1081 C.ar    1  UNL1        0.2073
     22 N          59.9844   93.0789    2.1478 N.ar    1  UNL1       -0.2401
     23 C          59.8119   92.7291    0.8620 C.ar    1  UNL1        0.3522
     24 O          59.7250   91.5385    0.4568 O.2     1  UNL1       -0.2444
     25 C          59.5618   93.8774   -1.3873 C.3     1  UNL1        0.1099
     26 C          58.3863   94.8013   -1.7339 C.3     1  UNL1        0.0265
     27 C          62.0978   93.5777   -1.5185 C.3     1  UNL1        0.0021
     28 C          60.8756   94.3121   -2.0696 C.3     1  UNL1        0.0245
     29 C          62.4388   91.5407    2.8518 C.3     1  UNL1        0.0238
     30 C          63.4781   90.5441    3.3830 C.3     1  UNL1        0.0047
     31 C          63.0256   92.9543    2.7673 C.3     1  UNL1        0.0047
     32 O          60.4915   85.0710   13.7196 O.3     1  UNL1       -0.4727
     33 C          60.4123   83.6479   13.7421 C.3     1  UNL1        0.2374
     34 C          59.4229   83.1763   12.6720 C.3     1  UNL1        0.1909
     35 C          59.1432   81.7033   12.7623 C.3     1  UNL1        0.1783
     36 O          59.9651   81.1042   11.8151 O.3     1  UNL1       -0.3266
     37 C          60.2699   82.1126   10.8699 C.3     1  UNL1        0.2315
     38 O          59.9703   83.3856   11.4074 O.3     1  UNL1       -0.3254
     39 C          59.4741   81.8547    9.5838 C.ar    1  UNL1        0.0410
     40 C          60.0197   80.9643    8.6325 C.ar    1  UNL1        0.0022
     41 C          59.3711   80.7116    7.4234 C.ar    1  UNL1        0.0113
     42 C          58.1711   81.3529    7.1261 C.ar    1  UNL1        0.0585
     43 CL         57.3616   81.0385    5.6020 Cl      1  UNL1       -0.0822
     44 C          57.6220   82.2564    8.0356 C.ar    1  UNL1        0.0226
     45 C          58.2595   82.5233    9.2545 C.ar    1  UNL1        0.0591
     46 CL         57.4867   83.7238   10.2881 Cl      1  UNL1       -0.0824
     47 C          61.7826   82.0333   10.5784 C.3     1  UNL1        0.1911
     48 N          62.2463   83.1645    9.7742 N.ar    1  UNL1       -0.2116
     49 N          61.4982   83.8288    8.9113 N.ar    1  UNL1       -0.0430
     50 N          62.2281   84.7932    8.3703 N.ar    1  UNL1       -0.0230
     51 N          63.4555   84.7727    8.8738 N.ar    1  UNL1       -0.1127
     52 C          63.4580   83.7504    9.7493 C.ar    1  UNL1        0.1615
     53 C          64.6327   83.3700   10.5921 C.3     1  UNL1        0.0754
@<TRIPOS>BOND
     1    27    28    1
     2    28    25    1
     3    25    26    1
     4    25    19    1
     5    19    20   ar
     6    20    21   ar
     7    21    22   ar
     8    22    13    1
     9    13    14   ar
    10    14    15   ar
    11    15    16   ar
    12    16     7    1
    13     7     8    1
    14     8     9    1
    15     9    10    1
    16    10     1    1
    17     1     2   ar
    18     2     3   ar
    19     3     4   ar
    20     4    32    1
    21    32    33    1
    22    33    34    1
    23    34    35    1
    24    35    36    1
    25    36    37    1
    26    37    47    1
    27    47    48    1
    28    48    49   ar
    29    49    50   ar
    30    50    51   ar
    31    51    52   ar
    32    52    53    1
    33    37    39    1
    34    39    40   ar
    35    40    41   ar
    36    41    42   ar
    37    42    43    1
    38    42    44   ar
    39    44    45   ar
    40    45    46    1
    41    37    38    1
    42     4     5   ar
    43     5     6   ar
    44    10    11    1
    45    11    12    1
    46    16    17   ar
    47    17    18   ar
    48    18    29    1
    49    29    30    1
    50    29    31    1
    51    22    23   ar
    52    23    24    2
    53    23    19   ar
    54    18    13   ar
    55    12     7    1
    56     6     1   ar
    57    38    34    1
    58    52    48   ar
    59    45    39   ar
@<TRIPOS>MOLECULE
*****
 53 59 0 0 0
SMALL
GASTEIGER

@<TRIPOS>ATOM
      1 C          60.7846   87.4134   10.2539 C.ar    1  UNL1        0.0481
      2 C          61.9961   86.8155   10.6342 C.ar    1  UNL1        0.0176
      3 C          62.0698   86.0382   11.7938 C.ar    1  UNL1        0.0382
      4 C          60.9269   85.8462   12.5927 C.ar    1  UNL1        0.1388
      5 C          59.7199   86.4424   12.2119 C.ar    1  UNL1        0.0382
      6 C          59.6455   87.2187   11.0522 C.ar    1  UNL1        0.0176
      7 N          60.0841   89.8875    6.9361 N.pl3   1  UNL1       -0.3041
      8 C          59.4210   88.5798    6.9994 C.3     1  UNL1        0.1122
      9 C          60.2821   87.5967    7.7933 C.3     1  UNL1        0.1122
     10 N          60.7153   88.2088    9.0555 N.pl3   1  UNL1       -0.3041
     11 C          61.3763   89.5180    8.9918 C.3     1  UNL1        0.1122
     12 C          60.5141   90.5004    8.1987 C.3     1  UNL1        0.1122
     13 C          59.9552   92.2324    3.3845 C.ar    1  UNL1        0.0659
     14 C          58.8137   92.0873    4.1860 C.ar    1  UNL1        0.0187
     15 C          58.8509   91.3163    5.3466 C.ar    1  UNL1        0.0160
     16 C          60.0351   90.6761    5.7324 C.ar    1  UNL1        0.0477
     17 C          61.1755   90.7993    4.9265 C.ar    1  UNL1        0.0117
     18 C          61.1523   91.5584    3.7384 C.ar    1  UNL1       -0.0050
     19 N          59.5688   93.8208    0.1603 N.ar    1  UNL1       -0.2024
     20 N          59.6514   94.8897    0.9403 N.ar    1  UNL1       -0.1442
     21 C          59.8341   94.4324    2.1989 C.ar    1  UNL1        0.2073
     22 N          59.8806   93.0833    2.2309 N.ar    1  UNL1       -0.2401
     23 C          59.6945   92.7338    0.9470 C.ar    1  UNL1        0.3522
     24 O          59.6438   91.5427    0.5368 O.2     1  UNL1       -0.2444
     25 C          59.3545   93.8830   -1.2900 C.3     1  UNL1        0.1099
     26 C          60.6553   93.5449   -2.0311 C.3     1  UNL1        0.0265
     27 C          56.8187   93.5949   -1.4485 C.3     1  UNL1        0.0021
     28 C          58.1869   92.9592   -1.6953 C.3     1  UNL1        0.0245
     29 C          62.3946   91.6091    2.8566 C.3     1  UNL1        0.0238
     30 C          63.4748   90.6378    3.3521 C.3     1  UNL1        0.0047
     31 C          62.9410   93.0383    2.7637 C.3     1  UNL1        0.0047
     32 O          60.9476   85.0739   13.7628 O.3     1  UNL1       -0.4727
     33 C          60.6415   83.6827   13.8167 C.3     1  UNL1        0.2374
     34 C          59.6520   83.3358   12.7001 C.3     1  UNL1        0.1909
     35 C          59.1267   81.9335   12.8178 C.3     1  UNL1        0.1783
     36 O          59.8917   81.1693   11.9447 O.3     1  UNL1       -0.3266
     37 C          60.4146   82.0742   10.9903 C.3     1  UNL1        0.2315
     38 O          60.2996   83.4001   11.4676 O.3     1  UNL1       -0.3254
     39 C          59.6637   81.8971    9.6641 C.ar    1  UNL1        0.0410
     40 C          58.6535   80.9119    9.5993 C.ar    1  UNL1        0.0022
     41 C          57.9559   80.6685    8.4158 C.ar    1  UNL1        0.0113
     42 C          58.2597   81.3898    7.2638 C.ar    1  UNL1        0.0585
     43 CL         57.3858   81.0765    5.7756 Cl      1  UNL1       -0.0822
     44 C          59.2698   82.3511    7.2920 C.ar    1  UNL1        0.0226
     45 C          59.9815   82.6087    8.4711 C.ar    1  UNL1        0.0591
     46 CL         61.2663   83.8099    8.3556 Cl      1  UNL1       -0.0824
     47 C          61.9076   81.7361   10.7997 C.3     1  UNL1        0.1911
     48 N          62.5523   81.3698   12.0612 N.ar    1  UNL1       -0.2116
     49 N          62.2291   80.3173   12.7916 N.ar    1  UNL1       -0.0430
     50 N          63.0170   80.2808   13.8562 N.ar    1  UNL1       -0.0230
     51 N          63.8630   81.3027   13.8323 N.ar    1  UNL1       -0.1127
     52 C          63.5641   81.9787   12.7075 C.ar    1  UNL1        0.1615
     53 C          64.2932   83.1980   12.2423 C.3     1  UNL1        0.0754
@<TRIPOS>BOND
     1    27    28    1
     2    28    25    1
     3    25    26    1
     4    25    19    1
     5    19    20   ar
     6    20    21   ar
     7    21    22   ar
     8    22    13    1
     9    13    14   ar
    10    14    15   ar
    11    15    16   ar
    12    16     7    1
    13     7     8    1
    14     8     9    1
    15     9    10    1
    16    10     1    1
    17     1     2   ar
    18     2     3   ar
    19     3     4   ar
    20     4    32    1
    21    32    33    1
    22    33    34    1
    23    34    35    1
    24    35    36    1
    25    36    37    1
    26    37    47    1
    27    47    48    1
    28    48    49   ar
    29    49    50   ar
    30    50    51   ar
    31    51    52   ar
    32    52    53    1
    33    37    39    1
    34    39    40   ar
    35    40    41   ar
    36    41    42   ar
    37    42    43    1
    38    42    44   ar
    39    44    45   ar
    40    45    46    1
    41    37    38    1
    42     4     5   ar
    43     5     6   ar
    44    10    11    1
    45    11    12    1
    46    16    17   ar
    47    17    18   ar
    48    18    29    1
    49    29    30    1
    50    29    31    1
    51    22    23   ar
    52    23    24    2
    53    23    19   ar
    54    18    13   ar
    55    12     7    1
    56     6     1   ar
    57    38    34    1
    58    52    48   ar
    59    45    39   ar
