@<TRIPOS>MOLECULE
*****
 38 42 0 0 0
SMALL
GASTEIGER

@<TRIPOS>ATOM
      1 C          49.9056   11.8041  -21.5505 C.2     1  UNL1        0.2506
      2 O          51.0662   11.9732  -22.0134 O.2     1  UNL1       -0.2699
      3 N          48.8386   11.3749  -22.4201 N.am    1  UNL1       -0.2679
      4 C          47.8398   10.4165  -21.9363 C.3     1  UNL1        0.1412
      5 C          46.5365   11.1402  -21.6101 C.3     1  UNL1        0.2268
      6 O          46.3373   12.2656  -22.4629 O.3     1  UNL1       -0.4738
      7 C          46.3853   12.1736  -23.8556 C.ar    1  UNL1        0.1384
      8 C          45.2149   12.4425  -24.5689 C.ar    1  UNL1        0.0368
      9 C          45.1921   12.3474  -25.9583 C.ar    1  UNL1        0.0053
     10 C          46.3516   12.0014  -26.6656 C.ar    1  UNL1        0.0275
     11 C          47.5409   11.7475  -25.9552 C.ar    1  UNL1        0.1406
     12 F          48.6689   11.4072  -26.6333 F       1  UNL1       -0.2043
     13 C          47.5734   11.8257  -24.5470 C.ar    1  UNL1        0.0591
     14 C          48.9221   11.6682  -23.8577 C.3     1  UNL1        0.1258
     15 C          46.3123   11.9200  -28.1453 C.ar    1  UNL1        0.0037
     16 C          46.5661   10.6871  -28.8073 C.ar    1  UNL1        0.0017
     17 C          46.5382   10.6050  -30.2122 C.ar    1  UNL1        0.0206
     18 C          46.2599   11.7676  -30.9235 C.ar    1  UNL1        0.0985
     19 N          46.1843   11.9188  -32.2580 N.ar    1  UNL1       -0.2241
     20 C          45.8921   13.2391  -32.3962 C.ar    1  UNL1        0.1750
     21 N          45.7872   13.8962  -31.2161 N.ar    1  UNL1       -0.3349
     22 C          46.0228   12.9522  -30.2976 C.ar    1  UNL1        0.0757
     23 C          46.0407   13.0785  -28.9114 C.ar    1  UNL1        0.0186
     24 H          45.5724   14.9065  -31.0624 H       1  UNL1        0.1675
     25 C          48.9511   13.1649  -19.6503 C.ar    1  UNL1        0.0503
     26 C          48.7078   13.2912  -18.2670 C.ar    1  UNL1        0.0328
     27 C          49.1925   12.3392  -17.3621 C.ar    1  UNL1        0.1069
     28 C          49.9213   11.2433  -17.8320 C.ar    1  UNL1        0.0186
     29 C          50.1636   11.0964  -19.1970 C.ar    1  UNL1        0.0071
     30 C          49.6709   12.0363  -20.1132 C.ar    1  UNL1        0.0667
     31 S          48.8621   12.5148  -15.6414 S.O2    1  UNL1        0.0105
     32 C          50.3986   12.6719  -14.7607 C.3     1  UNL1        0.1816
     33 O          48.1154   11.3090  -15.1438 O.2     1  UNL1       -0.1686
     34 O          48.0203   13.7366  -15.4006 O.2     1  UNL1       -0.1686
     35 N          48.5101   14.1808  -20.5796 N.pl3   1  UNL1       -0.3325
     36 H          47.4872   14.3404  -20.7172 H       1  UNL1        0.1468
     37 C          48.7636   15.4124  -22.6876 C.3     1  UNL1        0.0229
     38 C          49.4034   15.0421  -21.3542 C.3     1  UNL1        0.0871
@<TRIPOS>BOND
     1    37    38    1
     2    38    35    1
     3    35    25    1
     4    25    26   ar
     5    26    27   ar
     6    27    31    1
     7    31    32    1
     8    31    33    2
     9    31    34    2
    10    27    28   ar
    11    28    29   ar
    12    29    30   ar
    13    30     1    1
    14     1     2    2
    15     1     3   am
    16     3     4    1
    17     4     5    1
    18     5     6    1
    19     6     7    1
    20     7     8   ar
    21     8     9   ar
    22     9    10   ar
    23    10    15    1
    24    15    16   ar
    25    16    17   ar
    26    17    18   ar
    27    18    19   ar
    28    19    20   ar
    29    20    21   ar
    30    21    22   ar
    31    22    23   ar
    32    10    11   ar
    33    11    12    1
    34    11    13   ar
    35    13    14    1
    36    30    25   ar
    37    14     3    1
    38    13     7   ar
    39    23    15   ar
    40    22    18   ar
    41    35    36    1
    42    21    24    1
@<TRIPOS>MOLECULE
*****
 38 42 0 0 0
SMALL
GASTEIGER

@<TRIPOS>ATOM
      1 C          49.9368   12.0446  -21.3965 C.2     1  UNL1        0.2506
      2 O          51.0641   12.3744  -21.8552 O.2     1  UNL1       -0.2699
      3 N          48.9271   11.5144  -22.2787 N.am    1  UNL1       -0.2679
      4 C          48.0599   10.4217  -21.8269 C.3     1  UNL1        0.1412
      5 C          46.6779   10.9637  -21.4734 C.3     1  UNL1        0.2268
      6 O          46.3333   12.0836  -22.2862 O.3     1  UNL1       -0.4738
      7 C          46.3841   12.0463  -23.6813 C.ar    1  UNL1        0.1384
      8 C          45.1848   12.1898  -24.3828 C.ar    1  UNL1        0.0368
      9 C          45.1657   12.1403  -25.7747 C.ar    1  UNL1        0.0053
     10 C          46.3552   11.9677  -26.4955 C.ar    1  UNL1        0.0275
     11 C          47.5713   11.8415  -25.7964 C.ar    1  UNL1        0.1406
     12 F          48.7290   11.6696  -26.4879 F       1  UNL1       -0.2043
     13 C          47.6023   11.8748  -24.3864 C.ar    1  UNL1        0.0591
     14 C          48.9643   11.8650  -23.7053 C.3     1  UNL1        0.1258
     15 C          46.3175   11.9328  -27.9771 C.ar    1  UNL1        0.0037
     16 C          46.5779   10.7227  -28.6774 C.ar    1  UNL1        0.0017
     17 C          46.5516   10.6848  -30.0843 C.ar    1  UNL1        0.0206
     18 C          46.2680   11.8679  -30.7588 C.ar    1  UNL1        0.0985
     19 N          46.1927   12.0607  -32.0879 N.ar    1  UNL1       -0.2241
     20 C          45.8941   13.3833  -32.1847 C.ar    1  UNL1        0.1750
     21 N          45.7850   14.0023  -30.9845 N.ar    1  UNL1       -0.3349
     22 C          46.0245   13.0310  -30.0961 C.ar    1  UNL1        0.0757
     23 C          46.0408   13.1136  -28.7065 C.ar    1  UNL1        0.0186
     24 H          45.5651   15.0062  -30.7993 H       1  UNL1        0.1675
     25 C          50.7421   12.2378  -19.0116 C.ar    1  UNL1        0.0503
     26 C          50.4319   12.4492  -17.6524 C.ar    1  UNL1        0.0328
     27 C          49.1037   12.5847  -17.2309 C.ar    1  UNL1        0.1069
     28 C          48.0684   12.5176  -18.1673 C.ar    1  UNL1        0.0186
     29 C          48.3562   12.3188  -19.5168 C.ar    1  UNL1        0.0071
     30 C          49.6835   12.1959  -19.9516 C.ar    1  UNL1        0.0667
     31 S          48.7460   12.8617  -15.5291 S.O2    1  UNL1        0.0105
     32 C          50.2621   13.1669  -14.6518 C.3     1  UNL1        0.1816
     33 O          48.0628   11.6535  -14.9524 O.2     1  UNL1       -0.1686
     34 O          47.8348   14.0478  -15.3808 O.2     1  UNL1       -0.1686
     35 N          52.1072   12.0302  -19.4401 N.pl3   1  UNL1       -0.3325
     36 H          52.3876   11.1013  -19.8264 H       1  UNL1        0.1468
     37 C          52.6302   14.3815  -19.9120 C.3     1  UNL1        0.0229
     38 C          53.1567   13.0482  -19.3930 C.3     1  UNL1        0.0871
@<TRIPOS>BOND
     1    37    38    1
     2    38    35    1
     3    35    25    1
     4    25    26   ar
     5    26    27   ar
     6    27    31    1
     7    31    32    1
     8    31    33    2
     9    31    34    2
    10    27    28   ar
    11    28    29   ar
    12    29    30   ar
    13    30     1    1
    14     1     2    2
    15     1     3   am
    16     3     4    1
    17     4     5    1
    18     5     6    1
    19     6     7    1
    20     7     8   ar
    21     8     9   ar
    22     9    10   ar
    23    10    15    1
    24    15    16   ar
    25    16    17   ar
    26    17    18   ar
    27    18    19   ar
    28    19    20   ar
    29    20    21   ar
    30    21    22   ar
    31    22    23   ar
    32    10    11   ar
    33    11    12    1
    34    11    13   ar
    35    13    14    1
    36    30    25   ar
    37    14     3    1
    38    13     7   ar
    39    23    15   ar
    40    22    18   ar
    41    35    36    1
    42    21    24    1
@<TRIPOS>MOLECULE
*****
 38 42 0 0 0
SMALL
GASTEIGER

@<TRIPOS>ATOM
      1 C          46.6423   12.2470  -20.4118 C.2     1  UNL1        0.2506
      2 O          45.4240   11.9328  -20.3283 O.2     1  UNL1       -0.2699
      3 N          47.1923   12.6696  -21.6758 N.am    1  UNL1       -0.2679
      4 C          48.1778   13.7545  -21.7199 C.3     1  UNL1        0.1412
      5 C          49.5761   13.1817  -21.9330 C.3     1  UNL1        0.2268
      6 O          49.5383   11.9928  -22.7197 O.3     1  UNL1       -0.4738
      7 C          48.9066   11.9321  -23.9637 C.ar    1  UNL1        0.1384
      8 C          49.6991   11.6884  -25.0878 C.ar    1  UNL1        0.0368
      9 C          49.1322   11.6371  -26.3590 C.ar    1  UNL1        0.0053
     10 C          47.7514   11.8074  -26.5282 C.ar    1  UNL1        0.0275
     11 C          46.9424   12.0344  -25.3979 C.ar    1  UNL1        0.1406
     12 F          45.6028   12.2048  -25.5537 F       1  UNL1       -0.2043
     13 C          47.5062   12.1036  -24.1066 C.ar    1  UNL1        0.0591
     14 C          46.5565   12.2194  -22.9219 C.3     1  UNL1        0.1258
     15 C          47.1635   11.7343  -27.8872 C.ar    1  UNL1        0.0037
     16 C          47.0841   10.4911  -28.5733 C.ar    1  UNL1        0.0017
     17 C          46.5344   10.4164  -29.8670 C.ar    1  UNL1        0.0206
     18 C          46.0795   11.5963  -30.4466 C.ar    1  UNL1        0.0985
     19 N          45.5249   11.7570  -31.6615 N.ar    1  UNL1       -0.2241
     20 C          45.2780   13.0930  -31.7063 C.ar    1  UNL1        0.1750
     21 N          45.6542   13.7505  -30.5831 N.ar    1  UNL1       -0.3349
     22 C          46.1583   12.7905  -29.7993 C.ar    1  UNL1        0.0757
     23 C          46.6945   12.9101  -28.5201 C.ar    1  UNL1        0.0186
     24 H          45.5693   14.7712  -30.3796 H       1  UNL1        0.1675
     25 C          48.3713   11.1160  -18.9609 C.ar    1  UNL1        0.0503
     26 C          49.1872   11.1565  -17.8115 C.ar    1  UNL1        0.0328
     27 C          49.0978   12.2186  -16.9037 C.ar    1  UNL1        0.1069
     28 C          48.1946   13.2586  -17.1393 C.ar    1  UNL1        0.0186
     29 C          47.3866   13.2408  -18.2752 C.ar    1  UNL1        0.0071
     30 C          47.4778   12.1892  -19.1980 C.ar    1  UNL1        0.0667
     31 S          50.1387   12.2503  -15.4836 S.O2    1  UNL1        0.0105
     32 C          49.5836   13.5257  -14.3761 C.3     1  UNL1        0.1816
     33 O          51.5561   12.5253  -15.9012 O.2     1  UNL1       -0.1686
     34 O          50.0919   10.9224  -14.7810 O.2     1  UNL1       -0.1686
     35 N          48.4132    9.9881  -19.8644 N.pl3   1  UNL1       -0.3325
     36 H          47.5254    9.4981  -20.1141 H       1  UNL1        0.1468
     37 C          49.3297    8.9591  -21.8956 C.3     1  UNL1        0.0229
     38 C          49.6294    9.4704  -20.4909 C.3     1  UNL1        0.0871
@<TRIPOS>BOND
     1    37    38    1
     2    38    35    1
     3    35    25    1
     4    25    26   ar
     5    26    27   ar
     6    27    31    1
     7    31    32    1
     8    31    33    2
     9    31    34    2
    10    27    28   ar
    11    28    29   ar
    12    29    30   ar
    13    30     1    1
    14     1     2    2
    15     1     3   am
    16     3     4    1
    17     4     5    1
    18     5     6    1
    19     6     7    1
    20     7     8   ar
    21     8     9   ar
    22     9    10   ar
    23    10    15    1
    24    15    16   ar
    25    16    17   ar
    26    17    18   ar
    27    18    19   ar
    28    19    20   ar
    29    20    21   ar
    30    21    22   ar
    31    22    23   ar
    32    10    11   ar
    33    11    12    1
    34    11    13   ar
    35    13    14    1
    36    30    25   ar
    37    14     3    1
    38    13     7   ar
    39    23    15   ar
    40    22    18   ar
    41    35    36    1
    42    21    24    1
@<TRIPOS>MOLECULE
*****
 38 42 0 0 0
SMALL
GASTEIGER

@<TRIPOS>ATOM
      1 C          48.6454    9.7539  -21.3873 C.2     1  UNL1        0.2506
      2 O          48.1893    8.5785  -21.4057 O.2     1  UNL1       -0.2699
      3 N          49.0684   10.3819  -22.6143 N.am    1  UNL1       -0.2679
      4 C          48.7975   11.8053  -22.8400 C.3     1  UNL1        0.1412
      5 C          50.0718   12.6188  -22.6333 C.3     1  UNL1        0.2268
      6 O          51.2314   11.8736  -22.9989 O.3     1  UNL1       -0.4738
      7 C          51.3692   11.2571  -24.2445 C.ar    1  UNL1        0.1384
      8 C          52.3823   11.7135  -25.0909 C.ar    1  UNL1        0.0368
      9 C          52.5578   11.1543  -26.3544 C.ar    1  UNL1        0.0053
     10 C          51.7333   10.1074  -26.7885 C.ar    1  UNL1        0.0275
     11 C          50.7218    9.6283  -25.9336 C.ar    1  UNL1        0.1406
     12 F          49.9150    8.6160  -26.3486 F       1  UNL1       -0.2043
     13 C          50.5238   10.1962  -24.6575 C.ar    1  UNL1        0.0591
     14 C          49.5008    9.5411  -23.7392 C.3     1  UNL1        0.1258
     15 C          51.9449    9.5141  -28.1306 C.ar    1  UNL1        0.0037
     16 C          53.1035    9.8389  -28.8887 C.ar    1  UNL1        0.0017
     17 C          53.3062    9.2853  -30.1670 C.ar    1  UNL1        0.0206
     18 C          52.3356    8.4187  -30.6588 C.ar    1  UNL1        0.0985
     19 N          52.3236    7.7822  -31.8438 N.ar    1  UNL1       -0.2241
     20 C          51.1588    7.0828  -31.7990 C.ar    1  UNL1        0.1750
     21 N          50.4641    7.2622  -30.6499 N.ar    1  UNL1       -0.3349
     22 C          51.2212    8.1085  -29.9423 C.ar    1  UNL1        0.0757
     23 C          50.9807    8.6331  -28.6754 C.ar    1  UNL1        0.0186
     24 H          49.5489    6.8369  -30.3817 H       1  UNL1        0.1675
     25 C          47.5757   11.0617  -19.5113 C.ar    1  UNL1        0.0503
     26 C          47.7052   11.6741  -18.2478 C.ar    1  UNL1        0.0328
     27 C          48.9441   11.7255  -17.5976 C.ar    1  UNL1        0.1069
     28 C          50.0688   11.1570  -18.2018 C.ar    1  UNL1        0.0186
     29 C          49.9582   10.5386  -19.4463 C.ar    1  UNL1        0.0071
     30 C          48.7197   10.4692  -20.0997 C.ar    1  UNL1        0.0667
     31 S          49.0743   12.4845  -16.0141 S.O2    1  UNL1        0.0105
     32 C          50.7827   12.5327  -15.5238 C.3     1  UNL1        0.1816
     33 O          48.2821   11.6969  -15.0086 O.2     1  UNL1       -0.1686
     34 O          48.5296   13.8845  -16.0676 O.2     1  UNL1       -0.1686
     35 N          46.3127   11.0665  -20.2150 N.pl3   1  UNL1       -0.3325
     36 H          46.0394   10.2339  -20.7832 H       1  UNL1        0.1468
     37 C          44.2492   11.8821  -19.1656 C.3     1  UNL1        0.0229
     38 C          45.3482   12.1658  -20.1834 C.3     1  UNL1        0.0871
@<TRIPOS>BOND
     1    37    38    1
     2    38    35    1
     3    35    25    1
     4    25    26   ar
     5    26    27   ar
     6    27    31    1
     7    31    32    1
     8    31    33    2
     9    31    34    2
    10    27    28   ar
    11    28    29   ar
    12    29    30   ar
    13    30     1    1
    14     1     2    2
    15     1     3   am
    16     3     4    1
    17     4     5    1
    18     5     6    1
    19     6     7    1
    20     7     8   ar
    21     8     9   ar
    22     9    10   ar
    23    10    15    1
    24    15    16   ar
    25    16    17   ar
    26    17    18   ar
    27    18    19   ar
    28    19    20   ar
    29    20    21   ar
    30    21    22   ar
    31    22    23   ar
    32    10    11   ar
    33    11    12    1
    34    11    13   ar
    35    13    14    1
    36    30    25   ar
    37    14     3    1
    38    13     7   ar
    39    23    15   ar
    40    22    18   ar
    41    35    36    1
    42    21    24    1
