@<TRIPOS>MOLECULE
*****
 35 40 0 0 0
SMALL
GASTEIGER

@<TRIPOS>ATOM
      1 C          46.9244   11.5076  -27.6957 C.ar    1  UNL1        0.1095
      2 N          47.1029   10.2513  -28.1764 N.ar    1  UNL1       -0.1677
      3 N          46.8488   10.2673  -29.4793 N.ar    1  UNL1       -0.2319
      4 C          46.8339    9.0822  -30.3263 C.3     1  UNL1        0.1554
      5 C          46.4785   11.5099  -29.8238 C.ar    1  UNL1        0.1654
      6 N          46.0427   11.9240  -31.0375 N.ar    1  UNL1       -0.2050
      7 C          45.6758   13.2313  -31.1771 C.ar    1  UNL1        0.2014
      8 N          45.7745   14.0970  -30.1201 N.ar    1  UNL1       -0.2089
      9 C          46.2095   13.6876  -28.8898 C.ar    1  UNL1        0.1379
     10 C          46.5373   12.3361  -28.7431 C.ar    1  UNL1        0.0865
     11 C          47.9766   11.9537  -25.3880 C.ar    1  UNL1        0.0809
     12 C          46.9046   11.8016  -26.2573 C.ar    1  UNL1        0.0577
     13 C          45.7849   12.1137  -25.5146 C.ar    1  UNL1        0.1231
     14 N          46.1569   12.4193  -24.2575 N.ar    1  UNL1       -0.1676
     15 N          47.4767   12.3307  -24.1863 N.ar    1  UNL1       -0.2488
     16 C          48.2200   12.6601  -22.9739 C.3     1  UNL1        0.1537
     17 C          53.6216   11.5815  -26.6860 C.3     1  UNL1        0.0310
     18 C          52.1664   11.6735  -26.3353 C.ar    1  UNL1       -0.0218
     19 C          51.3140   10.5840  -26.5623 C.ar    1  UNL1       -0.0042
     20 C          49.9524   10.6797  -26.2631 C.ar    1  UNL1        0.0012
     21 C          49.4184   11.8679  -25.7354 C.ar    1  UNL1        0.0174
     22 C          50.2708   12.9679  -25.5439 C.ar    1  UNL1        0.0012
     23 C          51.6327   12.8721  -25.8424 C.ar    1  UNL1       -0.0042
     24 N          46.4398   14.6547  -27.8556 N.pl3   1  UNL1       -0.2917
     25 C          45.5142   14.8253  -26.7466 C.3     1  UNL1        0.0936
     26 C          46.2177   15.7791  -25.7813 C.3     1  UNL1        0.0362
     27 C          45.8208   17.2354  -26.0973 C.3     1  UNL1        0.0032
     28 C          47.7200   15.4925  -26.0217 C.3     1  UNL1        0.0789
     29 C          47.7751   15.1242  -27.5141 C.3     1  UNL1        0.1081
     30 N          48.6118   16.6234  -25.6386 N.3     1  UNL1       -0.2723
     31 C          49.8245   16.1020  -24.9597 C.3     1  UNL1        0.0721
     32 C          50.6902   17.2551  -24.4441 C.3     1  UNL1        0.0174
     33 C          51.1098   18.1614  -25.6014 C.3     1  UNL1        0.0029
     34 C          49.8837   18.6174  -26.3927 C.3     1  UNL1        0.0174
     35 C          49.0346   17.4144  -26.8216 C.3     1  UNL1        0.0721
@<TRIPOS>BOND
     1    17    18    1
     2    18    19   ar
     3    19    20   ar
     4    20    21   ar
     5    21    11    1
     6    11    12   ar
     7    12     1    1
     8     1     2   ar
     9     2     3   ar
    10     3     4    1
    11     3     5   ar
    12     5     6   ar
    13     6     7   ar
    14     7     8   ar
    15     8     9   ar
    16     9    24    1
    17    24    25    1
    18    25    26    1
    19    26    27    1
    20    26    28    1
    21    28    30    1
    22    30    31    1
    23    31    32    1
    24    32    33    1
    25    33    34    1
    26    34    35    1
    27    28    29    1
    28     9    10   ar
    29    12    13   ar
    30    13    14   ar
    31    14    15   ar
    32    15    16    1
    33    21    22   ar
    34    22    23   ar
    35    23    18   ar
    36    15    11   ar
    37    10     1   ar
    38    10     5   ar
    39    29    24    1
    40    35    30    1
@<TRIPOS>MOLECULE
*****
 35 40 0 0 0
SMALL
GASTEIGER

@<TRIPOS>ATOM
      1 C          47.8548   16.5245  -25.6186 C.ar    1  UNL1        0.1095
      2 N          47.5194   17.4668  -26.5355 N.ar    1  UNL1       -0.1677
      3 N          48.5922   18.2115  -26.7742 N.ar    1  UNL1       -0.2319
      4 C          48.5974   19.3918  -27.6280 C.3     1  UNL1        0.1554
      5 C          49.5934   17.7747  -25.9952 C.ar    1  UNL1        0.1654
      6 N          50.8243   18.3244  -25.8646 N.ar    1  UNL1       -0.2050
      7 C          51.6957   17.7480  -24.9862 C.ar    1  UNL1        0.2014
      8 N          51.3341   16.6304  -24.2816 N.ar    1  UNL1       -0.2089
      9 C          50.0924   16.0705  -24.4035 C.ar    1  UNL1        0.1379
     10 C          49.1897   16.6957  -25.2694 C.ar    1  UNL1        0.0865
     11 C          46.0523   14.6878  -25.5217 C.ar    1  UNL1        0.0809
     12 C          46.8517   15.6761  -24.9629 C.ar    1  UNL1        0.0577
     13 C          46.6063   15.6210  -23.6066 C.ar    1  UNL1        0.1231
     14 N          45.6926   14.6639  -23.3593 N.ar    1  UNL1       -0.1676
     15 N          45.3673   14.0982  -24.5120 N.ar    1  UNL1       -0.2488
     16 C          44.4419   12.9727  -24.5992 C.3     1  UNL1        0.1537
     17 C          45.9692   12.9592  -31.0619 C.3     1  UNL1        0.0310
     18 C          45.9758   13.3997  -29.6284 C.ar    1  UNL1       -0.0218
     19 C          45.6001   14.7067  -29.2885 C.ar    1  UNL1       -0.0042
     20 C          45.6345   15.1263  -27.9560 C.ar    1  UNL1        0.0012
     21 C          46.0491   14.2475  -26.9404 C.ar    1  UNL1        0.0174
     22 C          46.4585   12.9505  -27.2917 C.ar    1  UNL1        0.0012
     23 C          46.4235   12.5305  -28.6241 C.ar    1  UNL1       -0.0042
     24 N          49.8075   14.8186  -23.7636 N.pl3   1  UNL1       -0.2917
     25 C          50.0876   13.5464  -24.4106 C.3     1  UNL1        0.0936
     26 C          49.8434   12.4880  -23.3352 C.3     1  UNL1        0.0362
     27 C          48.3843   11.9936  -23.4048 C.3     1  UNL1        0.0032
     28 C          50.1713   13.2307  -22.0169 C.3     1  UNL1        0.0789
     29 C          49.7535   14.6808  -22.3150 C.3     1  UNL1        0.1081
     30 N          49.5113   12.6392  -20.8188 N.3     1  UNL1       -0.2723
     31 C          50.3321   11.5204  -20.2916 C.3     1  UNL1        0.0721
     32 C          49.6073   10.8176  -19.1401 C.3     1  UNL1        0.0174
     33 C          49.3197   11.8081  -18.0119 C.3     1  UNL1        0.0029
     34 C          48.5776   13.0306  -18.5523 C.3     1  UNL1        0.0174
     35 C          49.3303   13.6429  -19.7400 C.3     1  UNL1        0.0721
@<TRIPOS>BOND
     1    17    18    1
     2    18    19   ar
     3    19    20   ar
     4    20    21   ar
     5    21    11    1
     6    11    12   ar
     7    12     1    1
     8     1     2   ar
     9     2     3   ar
    10     3     4    1
    11     3     5   ar
    12     5     6   ar
    13     6     7   ar
    14     7     8   ar
    15     8     9   ar
    16     9    24    1
    17    24    25    1
    18    25    26    1
    19    26    27    1
    20    26    28    1
    21    28    30    1
    22    30    31    1
    23    31    32    1
    24    32    33    1
    25    33    34    1
    26    34    35    1
    27    28    29    1
    28     9    10   ar
    29    12    13   ar
    30    13    14   ar
    31    14    15   ar
    32    15    16    1
    33    21    22   ar
    34    22    23   ar
    35    23    18   ar
    36    15    11   ar
    37    10     1   ar
    38    10     5   ar
    39    29    24    1
    40    35    30    1
@<TRIPOS>MOLECULE
*****
 35 40 0 0 0
SMALL
GASTEIGER

@<TRIPOS>ATOM
      1 C          49.2043   10.7935  -25.9031 C.ar    1  UNL1        0.1095
      2 N          49.0665    9.5622  -26.4562 N.ar    1  UNL1       -0.1677
      3 N          50.1816    9.2796  -27.1189 N.ar    1  UNL1       -0.2319
      4 C          50.3720    8.0858  -27.9318 C.3     1  UNL1        0.1554
      5 C          51.0105   10.3299  -27.0213 C.ar    1  UNL1        0.1654
      6 N          52.2079   10.4835  -27.6354 N.ar    1  UNL1       -0.2050
      7 C          52.8878   11.6501  -27.4355 C.ar    1  UNL1        0.2014
      8 N          52.3764   12.6201  -26.6145 N.ar    1  UNL1       -0.2089
      9 C          51.1665   12.4761  -25.9934 C.ar    1  UNL1        0.1379
     10 C          50.4548   11.2984  -26.2421 C.ar    1  UNL1        0.0865
     11 C          46.9846   12.0991  -25.9091 C.ar    1  UNL1        0.0809
     12 C          48.0780   11.5084  -25.2898 C.ar    1  UNL1        0.0577
     13 C          47.8330   11.6150  -23.9366 C.ar    1  UNL1        0.1231
     14 N          46.6633   12.2535  -23.7460 N.ar    1  UNL1       -0.1676
     15 N          46.1508   12.5360  -24.9344 N.ar    1  UNL1       -0.2488
     16 C          44.8483   13.1753  -25.0943 C.3     1  UNL1        0.1537
     17 C          45.9313   12.1851  -31.6164 C.3     1  UNL1        0.0310
     18 C          46.2190   12.1664  -30.1446 C.ar    1  UNL1       -0.0218
     19 C          46.5005   10.9568  -29.4944 C.ar    1  UNL1       -0.0042
     20 C          46.7395   10.9353  -28.1178 C.ar    1  UNL1        0.0012
     21 C          46.6972   12.1224  -27.3664 C.ar    1  UNL1        0.0174
     22 C          46.3791   13.3258  -28.0174 C.ar    1  UNL1        0.0012
     23 C          46.1409   13.3476  -29.3943 C.ar    1  UNL1       -0.0042
     24 N          50.7395   13.4470  -25.0276 N.pl3   1  UNL1       -0.2917
     25 C          51.4906   13.6947  -23.8068 C.3     1  UNL1        0.0936
     26 C          50.8320   14.9200  -23.1733 C.3     1  UNL1        0.0362
     27 C          49.7312   14.4761  -22.1887 C.3     1  UNL1        0.0032
     28 C          50.2799   15.7023  -24.3899 C.3     1  UNL1        0.0789
     29 C          49.9138   14.5908  -25.3883 C.3     1  UNL1        0.1081
     30 N          49.1511   16.6142  -24.0505 N.3     1  UNL1       -0.2723
     31 C          49.0240   17.6677  -25.0885 C.3     1  UNL1        0.0721
     32 C          47.9540   18.6885  -24.6908 C.3     1  UNL1        0.0174
     33 C          46.6037   17.9963  -24.5060 C.3     1  UNL1        0.0029
     34 C          46.7334   16.8273  -23.5293 C.3     1  UNL1        0.0174
     35 C          47.8627   15.8824  -23.9584 C.3     1  UNL1        0.0721
@<TRIPOS>BOND
     1    17    18    1
     2    18    19   ar
     3    19    20   ar
     4    20    21   ar
     5    21    11    1
     6    11    12   ar
     7    12     1    1
     8     1     2   ar
     9     2     3   ar
    10     3     4    1
    11     3     5   ar
    12     5     6   ar
    13     6     7   ar
    14     7     8   ar
    15     8     9   ar
    16     9    24    1
    17    24    25    1
    18    25    26    1
    19    26    27    1
    20    26    28    1
    21    28    30    1
    22    30    31    1
    23    31    32    1
    24    32    33    1
    25    33    34    1
    26    34    35    1
    27    28    29    1
    28     9    10   ar
    29    12    13   ar
    30    13    14   ar
    31    14    15   ar
    32    15    16    1
    33    21    22   ar
    34    22    23   ar
    35    23    18   ar
    36    15    11   ar
    37    10     1   ar
    38    10     5   ar
    39    29    24    1
    40    35    30    1
@<TRIPOS>MOLECULE
*****
 35 40 0 0 0
SMALL
GASTEIGER

@<TRIPOS>ATOM
      1 C          47.6839   16.4433  -25.8117 C.ar    1  UNL1        0.1095
      2 N          47.3096   17.5419  -26.5146 N.ar    1  UNL1       -0.1677
      3 N          48.4021   18.2362  -26.8092 N.ar    1  UNL1       -0.2319
      4 C          48.3951   19.5346  -27.4697 C.3     1  UNL1        0.1554
      5 C          49.4601   17.6095  -26.2728 C.ar    1  UNL1        0.1654
      6 N          50.7438   18.0414  -26.2608 N.ar    1  UNL1       -0.2050
      7 C          51.6753   17.2706  -25.6272 C.ar    1  UNL1        0.2014
      8 N          51.3156   16.0835  -25.0461 N.ar    1  UNL1       -0.2089
      9 C          50.0216   15.6409  -25.0494 C.ar    1  UNL1        0.1379
     10 C          49.0658   16.4600  -25.6587 C.ar    1  UNL1        0.0865
     11 C          45.9408   14.5527  -25.6744 C.ar    1  UNL1        0.0809
     12 C          46.7112   15.5750  -25.1366 C.ar    1  UNL1        0.0577
     13 C          46.4740   15.5354  -23.7783 C.ar    1  UNL1        0.1231
     14 N          45.5921   14.5545  -23.5100 N.ar    1  UNL1       -0.1676
     15 N          45.2795   13.9592  -24.6513 N.ar    1  UNL1       -0.2488
     16 C          44.3897   12.8037  -24.7145 C.3     1  UNL1        0.1537
     17 C          46.0277   12.7431  -31.1886 C.3     1  UNL1        0.0310
     18 C          46.0204   13.2161  -29.7655 C.ar    1  UNL1       -0.0218
     19 C          46.3360   12.3317  -28.7247 C.ar    1  UNL1       -0.0042
     20 C          46.3005   12.7645  -27.3965 C.ar    1  UNL1        0.0012
     21 C          45.9449   14.0882  -27.0854 C.ar    1  UNL1        0.0174
     22 C          45.5949   14.9596  -28.1302 C.ar    1  UNL1        0.0012
     23 C          45.6311   14.5271  -29.4586 C.ar    1  UNL1       -0.0042
     24 N          49.7151   14.3264  -24.5636 N.pl3   1  UNL1       -0.2917
     25 C          49.7844   13.1562  -25.4246 C.3     1  UNL1        0.0936
     26 C          49.5964   11.9606  -24.4909 C.3     1  UNL1        0.0362
     27 C          48.1027   11.5857  -24.4097 C.3     1  UNL1        0.0032
     28 C          50.1717   12.4612  -23.1435 C.3     1  UNL1        0.0789
     29 C          49.8512   13.9656  -23.1596 C.3     1  UNL1        0.1081
     30 N          49.6337   11.7350  -21.9586 N.3     1  UNL1       -0.2723
     31 C          49.9319   10.2857  -22.0770 C.3     1  UNL1        0.0721
     32 C          49.2751    9.5061  -20.9341 C.3     1  UNL1        0.0174
     33 C          49.7806   10.0170  -19.5850 C.3     1  UNL1        0.0029
     34 C          49.5945   11.5312  -19.4849 C.3     1  UNL1        0.0174
     35 C          50.2233   12.2377  -20.6922 C.3     1  UNL1        0.0721
@<TRIPOS>BOND
     1    17    18    1
     2    18    19   ar
     3    19    20   ar
     4    20    21   ar
     5    21    11    1
     6    11    12   ar
     7    12     1    1
     8     1     2   ar
     9     2     3   ar
    10     3     4    1
    11     3     5   ar
    12     5     6   ar
    13     6     7   ar
    14     7     8   ar
    15     8     9   ar
    16     9    24    1
    17    24    25    1
    18    25    26    1
    19    26    27    1
    20    26    28    1
    21    28    30    1
    22    30    31    1
    23    31    32    1
    24    32    33    1
    25    33    34    1
    26    34    35    1
    27    28    29    1
    28     9    10   ar
    29    12    13   ar
    30    13    14   ar
    31    14    15   ar
    32    15    16    1
    33    21    22   ar
    34    22    23   ar
    35    23    18   ar
    36    15    11   ar
    37    10     1   ar
    38    10     5   ar
    39    29    24    1
    40    35    30    1
@<TRIPOS>MOLECULE
*****
 35 40 0 0 0
SMALL
GASTEIGER

@<TRIPOS>ATOM
      1 C          48.3152   11.7057  -22.1761 C.ar    1  UNL1        0.1095
      2 N          48.3892   10.5331  -21.4974 N.ar    1  UNL1       -0.1677
      3 N          49.3708   10.6310  -20.6090 N.ar    1  UNL1       -0.2319
      4 C          49.8221    9.5352  -19.7619 C.3     1  UNL1        0.1554
      5 C          49.9417   11.8380  -20.7394 C.ar    1  UNL1        0.1654
      6 N          51.0377   12.2962  -20.0887 N.ar    1  UNL1       -0.2050
      7 C          51.4872   13.5493  -20.3904 C.ar    1  UNL1        0.2014
      8 N          50.8257   14.3223  -21.3075 N.ar    1  UNL1       -0.2089
      9 C          49.7209   13.8671  -21.9726 C.ar    1  UNL1        0.1379
     10 C          49.2959   12.5646  -21.6927 C.ar    1  UNL1        0.0865
     11 C          47.8929   11.9295  -24.7067 C.ar    1  UNL1        0.0809
     12 C          47.4893   11.8645  -23.3797 C.ar    1  UNL1        0.0577
     13 C          46.1105   11.8508  -23.4176 C.ar    1  UNL1        0.1231
     14 N          45.7007   11.9234  -24.6977 N.ar    1  UNL1       -0.1676
     15 N          46.7750   11.9620  -25.4717 N.ar    1  UNL1       -0.2488
     16 C          46.6908   11.9795  -26.9289 C.3     1  UNL1        0.1537
     17 C          53.3556   11.5331  -26.6279 C.3     1  UNL1        0.0310
     18 C          51.9497   11.6368  -26.1162 C.ar    1  UNL1       -0.0218
     19 C          51.2026   10.4784  -25.8614 C.ar    1  UNL1       -0.0042
     20 C          49.8827   10.5750  -25.4129 C.ar    1  UNL1        0.0012
     21 C          49.2852   11.8318  -25.2152 C.ar    1  UNL1        0.0174
     22 C          50.0271   12.9885  -25.5067 C.ar    1  UNL1        0.0012
     23 C          51.3474   12.8920  -25.9545 C.ar    1  UNL1       -0.0042
     24 N          48.9732   14.7601  -22.8102 N.pl3   1  UNL1       -0.2917
     25 C          47.6581   15.2490  -22.4269 C.3     1  UNL1        0.0936
     26 C          47.3085   16.3142  -23.4660 C.3     1  UNL1        0.0362
     27 C          46.5291   15.6753  -24.6333 C.3     1  UNL1        0.0032
     28 C          48.6894   16.8715  -23.8899 C.3     1  UNL1        0.0789
     29 C          49.6164   15.6502  -23.7663 C.3     1  UNL1        0.1081
     30 N          48.6888   17.5035  -25.2395 N.3     1  UNL1       -0.2723
     31 C          48.2439   18.9158  -25.1349 C.3     1  UNL1        0.0721
     32 C          48.1130   19.5430  -26.5259 C.3     1  UNL1        0.0174
     33 C          49.4527   19.4887  -27.2599 C.3     1  UNL1        0.0029
     34 C          49.9933   18.0587  -27.2772 C.3     1  UNL1        0.0174
     35 C          50.0377   17.4766  -25.8589 C.3     1  UNL1        0.0721
@<TRIPOS>BOND
     1    17    18    1
     2    18    19   ar
     3    19    20   ar
     4    20    21   ar
     5    21    11    1
     6    11    12   ar
     7    12     1    1
     8     1     2   ar
     9     2     3   ar
    10     3     4    1
    11     3     5   ar
    12     5     6   ar
    13     6     7   ar
    14     7     8   ar
    15     8     9   ar
    16     9    24    1
    17    24    25    1
    18    25    26    1
    19    26    27    1
    20    26    28    1
    21    28    30    1
    22    30    31    1
    23    31    32    1
    24    32    33    1
    25    33    34    1
    26    34    35    1
    27    28    29    1
    28     9    10   ar
    29    12    13   ar
    30    13    14   ar
    31    14    15   ar
    32    15    16    1
    33    21    22   ar
    34    22    23   ar
    35    23    18   ar
    36    15    11   ar
    37    10     1   ar
    38    10     5   ar
    39    29    24    1
    40    35    30    1
@<TRIPOS>MOLECULE
*****
 35 40 0 0 0
SMALL
GASTEIGER

@<TRIPOS>ATOM
      1 C          49.4074   10.5037  -26.3965 C.ar    1  UNL1        0.1095
      2 N          49.1869    9.3882  -27.1369 N.ar    1  UNL1       -0.1677
      3 N          50.2647    9.1651  -27.8793 N.ar    1  UNL1       -0.2319
      4 C          50.3659    8.1136  -28.8823 C.3     1  UNL1        0.1554
      5 C          51.1514   10.1440  -27.6441 C.ar    1  UNL1        0.1654
      6 N          52.3363   10.3387  -28.2708 N.ar    1  UNL1       -0.2050
      7 C          53.0836   11.4225  -27.9101 C.ar    1  UNL1        0.2014
      8 N          52.6501   12.2677  -26.9231 N.ar    1  UNL1       -0.2089
      9 C          51.4536   12.0819  -26.2875 C.ar    1  UNL1        0.1379
     10 C          50.6723   10.9967  -26.6968 C.ar    1  UNL1        0.0865
     11 C          47.2104   11.8153  -26.1052 C.ar    1  UNL1        0.0809
     12 C          48.3402   11.1613  -25.6320 C.ar    1  UNL1        0.0577
     13 C          48.2001   11.1366  -24.2600 C.ar    1  UNL1        0.1231
     14 N          47.0566   11.7597  -23.9191 N.ar    1  UNL1       -0.1676
     15 N          46.4589   12.1594  -25.0315 N.ar    1  UNL1       -0.2488
     16 C          45.1562   12.8182  -25.0281 C.3     1  UNL1        0.1537
     17 C          45.7273   12.4633  -31.6793 C.3     1  UNL1        0.0310
     18 C          46.1259   12.2996  -30.2428 C.ar    1  UNL1       -0.0218
     19 C          46.4436   11.0314  -29.7372 C.ar    1  UNL1       -0.0042
     20 C          46.7862   10.8743  -28.3916 C.ar    1  UNL1        0.0012
     21 C          46.8133   11.9822  -27.5270 C.ar    1  UNL1        0.0174
     22 C          46.4591   13.2445  -28.0312 C.ar    1  UNL1        0.0012
     23 C          46.1172   13.4019  -29.3770 C.ar    1  UNL1       -0.0042
     24 N          51.1088   12.9001  -25.1608 N.pl3   1  UNL1       -0.2917
     25 C          50.0576   13.9027  -25.2353 C.3     1  UNL1        0.0936
     26 C          49.8670   14.3903  -23.7992 C.3     1  UNL1        0.0362
     27 C          50.7650   15.6160  -23.5357 C.3     1  UNL1        0.0032
     28 C          50.2543   13.1581  -22.9455 C.3     1  UNL1        0.0789
     29 C          51.3422   12.4717  -23.7889 C.3     1  UNL1        0.1081
     30 N          50.6824   13.5029  -21.5603 N.3     1  UNL1       -0.2723
     31 C          50.1637   12.4916  -20.6055 C.3     1  UNL1        0.0721
     32 C          50.4835   12.8985  -19.1643 C.3     1  UNL1        0.0174
     33 C          51.9938   13.0419  -18.9768 C.3     1  UNL1        0.0029
     34 C          52.5736   13.9890  -20.0276 C.3     1  UNL1        0.0174
     35 C          52.1611   13.5537  -21.4392 C.3     1  UNL1        0.0721
@<TRIPOS>BOND
     1    17    18    1
     2    18    19   ar
     3    19    20   ar
     4    20    21   ar
     5    21    11    1
     6    11    12   ar
     7    12     1    1
     8     1     2   ar
     9     2     3   ar
    10     3     4    1
    11     3     5   ar
    12     5     6   ar
    13     6     7   ar
    14     7     8   ar
    15     8     9   ar
    16     9    24    1
    17    24    25    1
    18    25    26    1
    19    26    27    1
    20    26    28    1
    21    28    30    1
    22    30    31    1
    23    31    32    1
    24    32    33    1
    25    33    34    1
    26    34    35    1
    27    28    29    1
    28     9    10   ar
    29    12    13   ar
    30    13    14   ar
    31    14    15   ar
    32    15    16    1
    33    21    22   ar
    34    22    23   ar
    35    23    18   ar
    36    15    11   ar
    37    10     1   ar
    38    10     5   ar
    39    29    24    1
    40    35    30    1
@<TRIPOS>MOLECULE
*****
 35 40 0 0 0
SMALL
GASTEIGER

@<TRIPOS>ATOM
      1 C          48.1960   16.4049  -25.3606 C.ar    1  UNL1        0.1095
      2 N          47.6777   17.2255  -26.3089 N.ar    1  UNL1       -0.1677
      3 N          48.6186   18.0918  -26.6649 N.ar    1  UNL1       -0.2319
      4 C          48.4069   19.1987  -27.5879 C.3     1  UNL1        0.1554
      5 C          49.7153   17.8523  -25.9302 C.ar    1  UNL1        0.1654
      6 N          50.8616   18.5735  -25.9172 N.ar    1  UNL1       -0.2050
      7 C          51.8556   18.1853  -25.0661 C.ar    1  UNL1        0.2014
      8 N          51.6975   17.0809  -24.2713 N.ar    1  UNL1       -0.2089
      9 C          50.5425   16.3487  -24.2742 C.ar    1  UNL1        0.1379
     10 C          49.5114   16.7818  -25.1138 C.ar    1  UNL1        0.0865
     11 C          46.6167   14.3958  -25.0420 C.ar    1  UNL1        0.0809
     12 C          47.3630   15.4750  -24.5877 C.ar    1  UNL1        0.0577
     13 C          47.2707   15.4298  -23.2122 C.ar    1  UNL1        0.1231
     14 N          46.4940   14.3906  -22.8532 N.ar    1  UNL1       -0.1676
     15 N          46.1089   13.7651  -23.9556 N.ar    1  UNL1       -0.2488
     16 C          45.3026   12.5486  -23.9254 C.3     1  UNL1        0.1537
     17 C          46.1248   12.5299  -30.5161 C.3     1  UNL1        0.0310
     18 C          46.2376   13.0052  -29.0982 C.ar    1  UNL1       -0.0218
     19 C          45.8261   14.2996  -28.7514 C.ar    1  UNL1       -0.0042
     20 C          45.9585   14.7529  -27.4362 C.ar    1  UNL1        0.0012
     21 C          46.5086   13.9213  -26.4455 C.ar    1  UNL1        0.0174
     22 C          46.9522   12.6383  -26.8069 C.ar    1  UNL1        0.0012
     23 C          46.8191   12.1846  -28.1220 C.ar    1  UNL1       -0.0042
     24 N          50.4754   15.1176  -23.5409 N.pl3   1  UNL1       -0.2917
     25 C          49.7967   15.0265  -22.2576 C.3     1  UNL1        0.0936
     26 C          49.7711   13.5352  -21.9234 C.3     1  UNL1        0.0362
     27 C          51.0117   13.1616  -21.0871 C.3     1  UNL1        0.0032
     28 C          49.7475   12.8543  -23.3137 C.3     1  UNL1        0.0789
     29 C          50.5612   13.8188  -24.1934 C.3     1  UNL1        0.1081
     30 N          50.2633   11.4561  -23.3020 N.3     1  UNL1       -0.2723
     31 C          49.1466   10.5085  -23.0601 C.3     1  UNL1        0.0721
     32 C          49.6760    9.0788  -22.9159 C.3     1  UNL1        0.0174
     33 C          50.4272    8.6618  -24.1802 C.3     1  UNL1        0.0029
     34 C          51.5083    9.6878  -24.5206 C.3     1  UNL1        0.0174
     35 C          50.9158   11.1008  -24.5872 C.3     1  UNL1        0.0721
@<TRIPOS>BOND
     1    17    18    1
     2    18    19   ar
     3    19    20   ar
     4    20    21   ar
     5    21    11    1
     6    11    12   ar
     7    12     1    1
     8     1     2   ar
     9     2     3   ar
    10     3     4    1
    11     3     5   ar
    12     5     6   ar
    13     6     7   ar
    14     7     8   ar
    15     8     9   ar
    16     9    24    1
    17    24    25    1
    18    25    26    1
    19    26    27    1
    20    26    28    1
    21    28    30    1
    22    30    31    1
    23    31    32    1
    24    32    33    1
    25    33    34    1
    26    34    35    1
    27    28    29    1
    28     9    10   ar
    29    12    13   ar
    30    13    14   ar
    31    14    15   ar
    32    15    16    1
    33    21    22   ar
    34    22    23   ar
    35    23    18   ar
    36    15    11   ar
    37    10     1   ar
    38    10     5   ar
    39    29    24    1
    40    35    30    1
@<TRIPOS>MOLECULE
*****
 35 40 0 0 0
SMALL
GASTEIGER

@<TRIPOS>ATOM
      1 C          47.8906   12.6111  -25.9732 C.ar    1  UNL1        0.1095
      2 N          47.1022   12.3448  -27.0449 N.ar    1  UNL1       -0.1677
      3 N          46.7710   13.4989  -27.6114 N.ar    1  UNL1       -0.2319
      4 C          45.8473   13.6277  -28.7303 C.3     1  UNL1        0.1554
      5 C          47.3114   14.4944  -26.8924 C.ar    1  UNL1        0.1654
      6 N          47.1323   15.8241  -27.0775 N.ar    1  UNL1       -0.2050
      7 C          47.7443   16.6820  -26.2099 C.ar    1  UNL1        0.2014
      8 N          48.5358   16.2014  -25.2004 N.ar    1  UNL1       -0.2089
      9 C          48.7195   14.8607  -25.0030 C.ar    1  UNL1        0.1379
     10 C          48.0501   13.9882  -25.8668 C.ar    1  UNL1        0.0865
     11 C          49.2930   10.6631  -25.0402 C.ar    1  UNL1        0.0809
     12 C          48.2529   11.5816  -24.9909 C.ar    1  UNL1        0.0577
     13 C          47.6826   11.4212  -23.7452 C.ar    1  UNL1        0.1231
     14 N          48.3300   10.4443  -23.0829 N.ar    1  UNL1       -0.1676
     15 N          49.3038    9.9959  -23.8609 N.ar    1  UNL1       -0.2488
     16 C          50.2467    8.9706  -23.4240 C.3     1  UNL1        0.1537
     17 C          53.2784   10.0804  -29.2195 C.3     1  UNL1        0.0310
     18 C          52.2574   10.2212  -28.1300 C.ar    1  UNL1       -0.0218
     19 C          51.1256    9.3945  -28.1103 C.ar    1  UNL1       -0.0042
     20 C          50.1594    9.5455  -27.1121 C.ar    1  UNL1        0.0012
     21 C          50.3061   10.5285  -26.1183 C.ar    1  UNL1        0.0174
     22 C          51.4243   11.3774  -26.1642 C.ar    1  UNL1        0.0012
     23 C          52.3910   11.2261  -27.1620 C.ar    1  UNL1       -0.0042
     24 N          49.6723   14.4058  -24.0318 N.pl3   1  UNL1       -0.2917
     25 C          51.0508   14.8700  -24.0354 C.3     1  UNL1        0.0936
     26 C          51.6600   14.3246  -22.7439 C.3     1  UNL1        0.0362
     27 C          52.3137   12.9531  -23.0082 C.3     1  UNL1        0.0032
     28 C          50.4512   14.2463  -21.7797 C.3     1  UNL1        0.0789
     29 C          49.2727   13.9282  -22.7157 C.3     1  UNL1        0.1081
     30 N          50.6337   13.2654  -20.6727 N.3     1  UNL1       -0.2723
     31 C          51.6284   13.7822  -19.6996 C.3     1  UNL1        0.0721
     32 C          51.9248   12.7327  -18.6246 C.3     1  UNL1        0.0174
     33 C          50.6421   12.3561  -17.8835 C.3     1  UNL1        0.0029
     34 C          49.5582   11.9331  -18.8753 C.3     1  UNL1        0.0174
     35 C          49.3606   13.0043  -19.9550 C.3     1  UNL1        0.0721
@<TRIPOS>BOND
     1    17    18    1
     2    18    19   ar
     3    19    20   ar
     4    20    21   ar
     5    21    11    1
     6    11    12   ar
     7    12     1    1
     8     1     2   ar
     9     2     3   ar
    10     3     4    1
    11     3     5   ar
    12     5     6   ar
    13     6     7   ar
    14     7     8   ar
    15     8     9   ar
    16     9    24    1
    17    24    25    1
    18    25    26    1
    19    26    27    1
    20    26    28    1
    21    28    30    1
    22    30    31    1
    23    31    32    1
    24    32    33    1
    25    33    34    1
    26    34    35    1
    27    28    29    1
    28     9    10   ar
    29    12    13   ar
    30    13    14   ar
    31    14    15   ar
    32    15    16    1
    33    21    22   ar
    34    22    23   ar
    35    23    18   ar
    36    15    11   ar
    37    10     1   ar
    38    10     5   ar
    39    29    24    1
    40    35    30    1
@<TRIPOS>MOLECULE
*****
 35 40 0 0 0
SMALL
GASTEIGER

@<TRIPOS>ATOM
      1 C          48.4310   11.9773  -25.7136 C.ar    1  UNL1        0.1095
      2 N          48.3228   11.6536  -27.0268 N.ar    1  UNL1       -0.1677
      3 N          47.0328   11.6144  -27.3380 N.ar    1  UNL1       -0.2319
      4 C          46.5145   11.2003  -28.6349 C.3     1  UNL1        0.1554
      5 C          46.3216   11.8756  -26.2308 C.ar    1  UNL1        0.1654
      6 N          44.9741   11.8365  -26.0991 N.ar    1  UNL1       -0.2050
      7 C          44.4405   12.1007  -24.8709 C.ar    1  UNL1        0.2014
      8 N          45.2524   12.4208  -23.8151 N.ar    1  UNL1       -0.2089
      9 C          46.6140   12.4589  -23.9371 C.ar    1  UNL1        0.1379
     10 C          47.1546   12.1397  -25.1866 C.ar    1  UNL1        0.0865
     11 C          50.6399   12.8882  -24.7528 C.ar    1  UNL1        0.0809
     12 C          49.7036   11.8898  -24.9864 C.ar    1  UNL1        0.0577
     13 C          50.1507   10.7960  -24.2748 C.ar    1  UNL1        0.1231
     14 N          51.3061   11.1089  -23.6591 N.ar    1  UNL1       -0.1676
     15 N          51.5937   12.3708  -23.9413 N.ar    1  UNL1       -0.2488
     16 C          52.7548   13.0544  -23.3797 C.3     1  UNL1        0.1537
     17 C          50.2202   18.4370  -26.4034 C.3     1  UNL1        0.0310
     18 C          50.3127   17.0031  -25.9738 C.ar    1  UNL1       -0.0218
     19 C          50.6849   16.6807  -24.6613 C.ar    1  UNL1       -0.0042
     20 C          50.7999   15.3445  -24.2691 C.ar    1  UNL1        0.0012
     21 C          50.5487   14.3070  -25.1835 C.ar    1  UNL1        0.0174
     22 C          50.2112   14.6365  -26.5067 C.ar    1  UNL1        0.0012
     23 C          50.0955   15.9728  -26.8989 C.ar    1  UNL1       -0.0042
     24 N          47.4151   12.9434  -22.8501 N.pl3   1  UNL1       -0.2917
     25 C          47.6834   14.3615  -22.6690 C.3     1  UNL1        0.0936
     26 C          48.3760   14.4675  -21.3106 C.3     1  UNL1        0.0362
     27 C          49.9055   14.3884  -21.4917 C.3     1  UNL1        0.0032
     28 C          47.7954   13.2727  -20.5154 C.3     1  UNL1        0.0789
     29 C          47.5553   12.2092  -21.6006 C.3     1  UNL1        0.1081
     30 N          48.6706   12.8180  -19.3981 N.3     1  UNL1       -0.2723
     31 C          48.0707   13.2066  -18.0972 C.3     1  UNL1        0.0721
     32 C          49.0177   12.8627  -16.9439 C.3     1  UNL1        0.0174
     33 C          49.3180   11.3640  -16.9337 C.3     1  UNL1        0.0029
     34 C          49.8259   10.9129  -18.3033 C.3     1  UNL1        0.0174
     35 C          48.8582   11.3454  -19.4119 C.3     1  UNL1        0.0721
@<TRIPOS>BOND
     1    17    18    1
     2    18    19   ar
     3    19    20   ar
     4    20    21   ar
     5    21    11    1
     6    11    12   ar
     7    12     1    1
     8     1     2   ar
     9     2     3   ar
    10     3     4    1
    11     3     5   ar
    12     5     6   ar
    13     6     7   ar
    14     7     8   ar
    15     8     9   ar
    16     9    24    1
    17    24    25    1
    18    25    26    1
    19    26    27    1
    20    26    28    1
    21    28    30    1
    22    30    31    1
    23    31    32    1
    24    32    33    1
    25    33    34    1
    26    34    35    1
    27    28    29    1
    28     9    10   ar
    29    12    13   ar
    30    13    14   ar
    31    14    15   ar
    32    15    16    1
    33    21    22   ar
    34    22    23   ar
    35    23    18   ar
    36    15    11   ar
    37    10     1   ar
    38    10     5   ar
    39    29    24    1
    40    35    30    1
