@<TRIPOS>MOLECULE
*****
 47 52 0 0 0
SMALL
GASTEIGER

@<TRIPOS>ATOM
      1 C          11.0182   79.8931   24.3675 C.ar    1  UNL1        0.0702
      2 C          12.3979   79.7184   24.5599 C.ar    1  UNL1        0.0191
      3 C          13.1839   80.7830   25.0034 C.ar    1  UNL1        0.0356
      4 C          12.5874   82.0282   25.2506 C.ar    1  UNL1        0.1318
      5 N          11.2528   82.1835   25.0264 N.ar    1  UNL1       -0.2279
      6 C          10.4679   81.1615   24.5939 C.ar    1  UNL1        0.1149
      7 N          13.3746   83.1484   25.6957 N.pl3   1  UNL1       -0.2932
      8 C          13.8852   84.1285   24.7269 C.3     1  UNL1        0.0923
      9 C          13.8618   85.5320   25.3371 C.3     1  UNL1        0.0252
     10 C          14.6099   85.5485   26.6830 C.3     1  UNL1        0.0472
     11 C          13.9926   84.5173   27.6478 C.3     1  UNL1        0.0252
     12 C          13.9943   83.1161   27.0267 C.3     1  UNL1        0.0923
     13 C          14.6532   86.9539   27.3168 C.3     1  UNL1        0.2054
     14 O          15.0794   87.9536   26.3860 O.3     1  UNL1       -0.4755
     15 C          16.4031   88.3384   26.1120 C.ar    1  UNL1        0.1388
     16 C          17.2072   88.7150   27.1930 C.ar    1  UNL1        0.0369
     17 C          18.5292   89.1132   26.9910 C.ar    1  UNL1        0.0033
     18 C          19.0656   89.1374   25.7027 C.ar    1  UNL1        0.0066
     19 C          18.2814   88.7578   24.5996 C.ar    1  UNL1        0.0785
     20 C          16.9504   88.3536   24.8122 C.ar    1  UNL1        0.0433
     21 C          18.8457   88.7835   23.2313 C.2     1  UNL1        0.3381
     22 O          18.3144   89.4934   22.3347 O.2     1  UNL1       -0.2451
     23 O          19.9692   88.0220   22.9199 O.3     1  UNL1       -0.4771
     24 H          20.3624   88.0320   21.9864 H       1  UNL1        0.2954
     25 C           9.4507   78.8822   22.6519 C.2     1  UNL1        0.2839
     26 O           9.8559   79.6187   21.7127 O.2     1  UNL1       -0.2665
     27 N          10.1804   78.8279   23.8869 N.am    1  UNL1       -0.2766
     28 H          10.1873   77.9232   24.4088 H       1  UNL1        0.1553
     29 C           4.5463   75.6088   21.4863 C.ar    1  UNL1        0.0002
     30 C           5.0633   74.8955   22.6017 C.ar    1  UNL1        0.0031
     31 C           6.2499   75.3073   23.2335 C.ar    1  UNL1        0.0375
     32 C           6.8995   76.4306   22.7339 C.ar    1  UNL1        0.1452
     33 O           8.0071   76.9735   23.1769 O.2     1  UNL1       -0.4492
     34 C           8.2730   78.0264   22.4238 C.ar    1  UNL1        0.1946
     35 C           7.2989   78.1597   21.4263 C.ar    1  UNL1        0.0202
     36 C           7.2140   79.1843   20.3355 C.3     1  UNL1        0.0345
     37 C           6.4138   77.1261   21.6602 C.ar    1  UNL1        0.0337
     38 C           5.2397   76.7471   21.0091 C.ar    1  UNL1        0.0028
     39 C           0.8982   74.3206   19.5735 C.ar    1  UNL1        0.0347
     40 C           1.3187   75.6605   19.4907 C.ar    1  UNL1        0.0028
     41 C           2.5005   76.0775   20.1094 C.ar    1  UNL1        0.0001
     42 C           3.2914   75.1655   20.8276 C.ar    1  UNL1        0.0000
     43 C           2.8739   73.8267   20.9127 C.ar    1  UNL1        0.0001
     44 C           1.6929   73.4085   20.2933 C.ar    1  UNL1        0.0028
     45 C          -0.6599   72.4507   18.6260 C.3     1  UNL1        0.0773
     46 C          -0.3624   73.8930   18.9084 C.2     1  UNL1        0.1735
     47 O          -1.2143   74.7580   18.5666 O.2     1  UNL1       -0.2913
@<TRIPOS>BOND
     1    45    46    1
     2    46    47    2
     3    46    39    1
     4    39    40   ar
     5    40    41   ar
     6    41    42   ar
     7    42    29    1
     8    29    30   ar
     9    30    31   ar
    10    31    32   ar
    11    32    33   ar
    12    33    34   ar
    13    34    25    1
    14    25    26    2
    15    25    27   am
    16    27     1    1
    17     1     2   ar
    18     2     3   ar
    19     3     4   ar
    20     4     7    1
    21     7     8    1
    22     8     9    1
    23     9    10    1
    24    10    13    1
    25    13    14    1
    26    14    15    1
    27    15    16   ar
    28    16    17   ar
    29    17    18   ar
    30    18    19   ar
    31    19    21    1
    32    21    22    2
    33    21    23    1
    34    19    20   ar
    35    10    11    1
    36    11    12    1
    37     4     5   ar
    38     5     6   ar
    39    34    35   ar
    40    35    36    1
    41    35    37   ar
    42    37    38   ar
    43    42    43   ar
    44    43    44   ar
    45    44    39   ar
    46    38    29   ar
    47    37    32   ar
    48     6     1   ar
    49    12     7    1
    50    20    15   ar
    51    27    28    1
    52    23    24    1
@<TRIPOS>MOLECULE
*****
 47 52 0 0 0
SMALL
GASTEIGER

@<TRIPOS>ATOM
      1 C          10.4237   79.3948   23.9676 C.ar    1  UNL1        0.0702
      2 C           9.8638   80.6440   24.2795 C.ar    1  UNL1        0.0191
      3 C          10.6842   81.6984   24.6831 C.ar    1  UNL1        0.0356
      4 C          12.0694   81.5003   24.7795 C.ar    1  UNL1        0.1318
      5 N          12.5871   80.2711   24.5030 N.ar    1  UNL1       -0.2279
      6 C          11.8077   79.2295   24.1091 C.ar    1  UNL1        0.1149
      7 N          12.9394   82.5652   25.2061 N.pl3   1  UNL1       -0.2932
      8 C          13.4016   83.5762   24.2448 C.3     1  UNL1        0.0923
      9 C          13.4914   84.9448   24.9240 C.3     1  UNL1        0.0252
     10 C          14.3571   84.8615   26.1949 C.3     1  UNL1        0.0472
     11 C          13.7862   83.8037   27.1594 C.3     1  UNL1        0.0252
     12 C          13.6738   82.4387   26.4715 C.3     1  UNL1        0.0923
     13 C          14.5155   86.2284   26.8916 C.3     1  UNL1        0.2054
     14 O          14.8663   87.2665   25.9714 O.3     1  UNL1       -0.4755
     15 C          16.1148   87.9016   25.8555 C.ar    1  UNL1        0.1388
     16 C          16.6644   88.4695   27.0098 C.ar    1  UNL1        0.0369
     17 C          17.8982   89.1197   26.9640 C.ar    1  UNL1        0.0033
     18 C          18.6004   89.2082   25.7611 C.ar    1  UNL1        0.0066
     19 C          18.0739   88.6407   24.5880 C.ar    1  UNL1        0.0785
     20 C          16.8311   87.9830   24.6433 C.ar    1  UNL1        0.0433
     21 C          18.8145   88.7336   23.3095 C.2     1  UNL1        0.3381
     22 O          18.4081   89.4946   22.3900 O.2     1  UNL1       -0.2451
     23 O          19.9679   87.9795   23.1091 O.3     1  UNL1       -0.4771
     24 H          20.4813   88.0352   22.2376 H       1  UNL1        0.2954
     25 C           9.2281   78.0074   22.2161 C.2     1  UNL1        0.2839
     26 O           9.9463   78.4205   21.2663 O.2     1  UNL1       -0.2665
     27 N           9.6088   78.2775   23.5735 N.am    1  UNL1       -0.2766
     28 H           9.3706   77.5631   24.2973 H       1  UNL1        0.1553
     29 C           4.2674   74.9076   20.8344 C.ar    1  UNL1        0.0002
     30 C           5.0229   73.8935   21.4832 C.ar    1  UNL1        0.0031
     31 C           6.3051   74.1642   21.9922 C.ar    1  UNL1        0.0375
     32 C           6.8092   75.4512   21.8408 C.ar    1  UNL1        0.1452
     33 O           7.9718   75.9041   22.2421 O.2     1  UNL1       -0.4492
     34 C           8.0494   77.1796   21.9051 C.ar    1  UNL1        0.1946
     35 C           6.8854   77.5678   21.2297 C.ar    1  UNL1        0.0202
     36 C           6.5501   78.9046   20.6402 C.3     1  UNL1        0.0345
     37 C           6.0935   76.4368   21.2172 C.ar    1  UNL1        0.0337
     38 C           4.8186   76.2047   20.7007 C.ar    1  UNL1        0.0028
     39 C           0.3329   74.0438   19.2848 C.ar    1  UNL1        0.0347
     40 C           0.9947   73.1242   20.1188 C.ar    1  UNL1        0.0028
     41 C           2.2684   73.4043   20.6212 C.ar    1  UNL1        0.0001
     42 C           2.9134   74.6106   20.3018 C.ar    1  UNL1        0.0000
     43 C           2.2554   75.5308   19.4686 C.ar    1  UNL1        0.0001
     44 C           0.9811   75.2522   18.9666 C.ar    1  UNL1        0.0028
     45 C          -2.2200   74.5653   19.1040 C.3     1  UNL1        0.0773
     46 C          -1.0233   73.7303   18.7588 C.2     1  UNL1        0.1735
     47 O          -1.1858   72.7363   17.9997 O.2     1  UNL1       -0.2913
@<TRIPOS>BOND
     1    45    46    1
     2    46    47    2
     3    46    39    1
     4    39    40   ar
     5    40    41   ar
     6    41    42   ar
     7    42    29    1
     8    29    30   ar
     9    30    31   ar
    10    31    32   ar
    11    32    33   ar
    12    33    34   ar
    13    34    25    1
    14    25    26    2
    15    25    27   am
    16    27     1    1
    17     1     2   ar
    18     2     3   ar
    19     3     4   ar
    20     4     7    1
    21     7     8    1
    22     8     9    1
    23     9    10    1
    24    10    13    1
    25    13    14    1
    26    14    15    1
    27    15    16   ar
    28    16    17   ar
    29    17    18   ar
    30    18    19   ar
    31    19    21    1
    32    21    22    2
    33    21    23    1
    34    19    20   ar
    35    10    11    1
    36    11    12    1
    37     4     5   ar
    38     5     6   ar
    39    34    35   ar
    40    35    36    1
    41    35    37   ar
    42    37    38   ar
    43    42    43   ar
    44    43    44   ar
    45    44    39   ar
    46    38    29   ar
    47    37    32   ar
    48     6     1   ar
    49    12     7    1
    50    20    15   ar
    51    27    28    1
    52    23    24    1
@<TRIPOS>MOLECULE
*****
 47 52 0 0 0
SMALL
GASTEIGER

@<TRIPOS>ATOM
      1 C           9.0417   77.7181   21.6103 C.ar    1  UNL1        0.0702
      2 C           8.8939   76.3227   21.6566 C.ar    1  UNL1        0.0191
      3 C           7.7556   75.7205   21.1189 C.ar    1  UNL1        0.0356
      4 C           6.7593   76.5182   20.5371 C.ar    1  UNL1        0.1318
      5 N           6.9089   77.8721   20.5322 N.ar    1  UNL1       -0.2279
      6 C           8.0083   78.4807   21.0506 C.ar    1  UNL1        0.1149
      7 N           5.5679   75.9266   19.9865 N.pl3   1  UNL1       -0.2932
      8 C           5.2158   74.5352   20.3026 C.3     1  UNL1        0.0923
      9 C           3.6971   74.3926   20.4272 C.3     1  UNL1        0.0252
     10 C           2.9983   74.9340   19.1662 C.3     1  UNL1        0.0472
     11 C           3.3963   76.4034   18.9264 C.3     1  UNL1        0.0252
     12 C           4.9188   76.5493   18.8257 C.3     1  UNL1        0.0923
     13 C           1.4658   74.7704   19.2246 C.3     1  UNL1        0.2054
     14 O           0.8174   75.9353   19.7442 O.3     1  UNL1       -0.4755
     15 C           1.1973   76.6747   20.8775 C.ar    1  UNL1        0.1388
     16 C           0.5385   77.8860   21.1137 C.ar    1  UNL1        0.0369
     17 C           0.8702   78.6722   22.2179 C.ar    1  UNL1        0.0033
     18 C           1.8655   78.2547   23.1028 C.ar    1  UNL1        0.0066
     19 C           2.5386   77.0389   22.8923 C.ar    1  UNL1        0.0785
     20 C           2.1954   76.2498   21.7789 C.ar    1  UNL1        0.0433
     21 C           3.5961   76.5929   23.8273 C.2     1  UNL1        0.3381
     22 O           3.3078   76.2760   25.0133 O.2     1  UNL1       -0.2451
     23 O           4.9215   76.5202   23.4064 O.3     1  UNL1       -0.4771
     24 H           5.6526   76.2172   24.0388 H       1  UNL1        0.2954
     25 C          10.5568   78.2856   23.5609 C.2     1  UNL1        0.2839
     26 O          10.2112   77.2818   24.2402 O.2     1  UNL1       -0.2665
     27 N          10.1875   78.3769   22.1767 N.am    1  UNL1       -0.2766
     28 H          10.8483   78.8591   21.5274 H       1  UNL1        0.1553
     29 C          13.7725   82.6701   26.1226 C.ar    1  UNL1        0.0002
     30 C          14.7841   81.6866   25.9502 C.ar    1  UNL1        0.0031
     31 C          14.4869   80.4410   25.3700 C.ar    1  UNL1        0.0375
     32 C          13.1761   80.2024   24.9719 C.ar    1  UNL1        0.1452
     33 O          12.6976   79.1170   24.4145 O.2     1  UNL1       -0.4492
     34 C          11.4092   79.3088   24.1917 C.ar    1  UNL1        0.1946
     35 C          11.0278   80.5764   24.6494 C.ar    1  UNL1        0.0202
     36 C           9.6669   81.2045   24.6323 C.3     1  UNL1        0.0345
     37 C          12.1921   81.1395   25.1330 C.ar    1  UNL1        0.0337
     38 C          12.4503   82.3858   25.7040 C.ar    1  UNL1        0.0028
     39 C          14.7209   86.4853   27.9037 C.ar    1  UNL1        0.0347
     40 C          14.5043   86.3729   26.5183 C.ar    1  UNL1        0.0028
     41 C          14.1963   85.1376   25.9417 C.ar    1  UNL1        0.0001
     42 C          14.0982   83.9829   26.7355 C.ar    1  UNL1        0.0000
     43 C          14.3146   84.0916   28.1194 C.ar    1  UNL1        0.0001
     44 C          14.6215   85.3267   28.6972 C.ar    1  UNL1        0.0028
     45 C          15.8339   88.8434   27.7550 C.3     1  UNL1        0.0773
     46 C          15.0473   87.8081   28.5019 C.2     1  UNL1        0.1735
     47 O          14.6578   88.0799   29.6703 O.2     1  UNL1       -0.2913
@<TRIPOS>BOND
     1    45    46    1
     2    46    47    2
     3    46    39    1
     4    39    40   ar
     5    40    41   ar
     6    41    42   ar
     7    42    29    1
     8    29    30   ar
     9    30    31   ar
    10    31    32   ar
    11    32    33   ar
    12    33    34   ar
    13    34    25    1
    14    25    26    2
    15    25    27   am
    16    27     1    1
    17     1     2   ar
    18     2     3   ar
    19     3     4   ar
    20     4     7    1
    21     7     8    1
    22     8     9    1
    23     9    10    1
    24    10    13    1
    25    13    14    1
    26    14    15    1
    27    15    16   ar
    28    16    17   ar
    29    17    18   ar
    30    18    19   ar
    31    19    21    1
    32    21    22    2
    33    21    23    1
    34    19    20   ar
    35    10    11    1
    36    11    12    1
    37     4     5   ar
    38     5     6   ar
    39    34    35   ar
    40    35    36    1
    41    35    37   ar
    42    37    38   ar
    43    42    43   ar
    44    43    44   ar
    45    44    39   ar
    46    38    29   ar
    47    37    32   ar
    48     6     1   ar
    49    12     7    1
    50    20    15   ar
    51    27    28    1
    52    23    24    1
@<TRIPOS>MOLECULE
*****
 47 52 0 0 0
SMALL
GASTEIGER

@<TRIPOS>ATOM
      1 C          10.4588   79.2196   24.1675 C.ar    1  UNL1        0.0702
      2 C          11.8123   79.0073   24.4743 C.ar    1  UNL1        0.0191
      3 C          12.6461   80.0914   24.7521 C.ar    1  UNL1        0.0356
      4 C          12.1244   81.3930   24.7180 C.ar    1  UNL1        0.1318
      5 N          10.8161   81.5774   24.3864 N.ar    1  UNL1       -0.2279
      6 C           9.9856   80.5371   24.1113 C.ar    1  UNL1        0.1149
      7 N          12.9633   82.5317   24.9867 N.pl3   1  UNL1       -0.2932
      8 C          13.5173   83.3233   23.8793 C.3     1  UNL1        0.0923
      9 C          13.5597   84.8046   24.2619 C.3     1  UNL1        0.0252
     10 C          14.3097   84.9976   25.5930 C.3     1  UNL1        0.0472
     11 C          13.6466   84.1599   26.7038 C.3     1  UNL1        0.0252
     12 C          13.5826   82.6801   26.3099 C.3     1  UNL1        0.0923
     13 C          14.4189   86.4815   25.9990 C.3     1  UNL1        0.2054
     14 O          13.4195   87.2890   25.3692 O.3     1  UNL1       -0.4755
     15 C          13.5035   87.8980   24.1053 C.ar    1  UNL1        0.1388
     16 C          14.5019   88.8587   23.9121 C.ar    1  UNL1        0.0369
     17 C          14.6376   89.5057   22.6832 C.ar    1  UNL1        0.0033
     18 C          13.7761   89.1977   21.6292 C.ar    1  UNL1        0.0066
     19 C          12.7685   88.2318   21.7946 C.ar    1  UNL1        0.0785
     20 C          12.6408   87.5808   23.0356 C.ar    1  UNL1        0.0433
     21 C          11.8514   87.9031   20.6799 C.2     1  UNL1        0.3381
     22 O          11.7819   88.6524   19.6681 O.2     1  UNL1       -0.2451
     23 O          11.0546   86.7625   20.7383 O.3     1  UNL1       -0.4771
     24 H          10.4233   86.5293   19.9813 H       1  UNL1        0.2954
     25 C           9.3073   77.6842   22.5125 C.2     1  UNL1        0.2839
     26 O          10.1572   77.8772   21.6021 O.2     1  UNL1       -0.2665
     27 N           9.5750   78.1305   23.8503 N.am    1  UNL1       -0.2766
     28 H           9.1910   77.5632   24.6387 H       1  UNL1        0.1553
     29 C           4.2036   74.8634   21.0556 C.ar    1  UNL1        0.0002
     30 C           4.8231   73.8629   21.8527 C.ar    1  UNL1        0.0031
     31 C           6.0863   74.0811   22.4300 C.ar    1  UNL1        0.0375
     32 C           6.7084   75.3026   22.1968 C.ar    1  UNL1        0.1452
     33 O           7.8757   75.7001   22.6410 O.2     1  UNL1       -0.4492
     34 C           8.0855   76.9252   22.1921 C.ar    1  UNL1        0.1946
     35 C           7.0079   77.3346   21.3965 C.ar    1  UNL1        0.0202
     36 C           6.8299   78.6279   20.6599 C.3     1  UNL1        0.0345
     37 C           6.1243   76.2742   21.4304 C.ar    1  UNL1        0.0337
     38 C           4.8722   76.0930   20.8426 C.ar    1  UNL1        0.0028
     39 C           0.3239   74.1627   19.2993 C.ar    1  UNL1        0.0347
     40 C           0.9368   73.1836   20.1024 C.ar    1  UNL1        0.0028
     41 C           2.1927   73.4109   20.6718 C.ar    1  UNL1        0.0001
     42 C           2.8685   74.6225   20.4518 C.ar    1  UNL1        0.0000
     43 C           2.2594   75.6021   19.6498 C.ar    1  UNL1        0.0001
     44 C           1.0029   75.3763   19.0809 C.ar    1  UNL1        0.0028
     45 C          -2.2092   74.7442   19.0408 C.3     1  UNL1        0.0773
     46 C          -1.0139   73.9050   18.7010 C.2     1  UNL1        0.1735
     47 O          -1.1615   72.9563   17.8831 O.2     1  UNL1       -0.2913
@<TRIPOS>BOND
     1    45    46    1
     2    46    47    2
     3    46    39    1
     4    39    40   ar
     5    40    41   ar
     6    41    42   ar
     7    42    29    1
     8    29    30   ar
     9    30    31   ar
    10    31    32   ar
    11    32    33   ar
    12    33    34   ar
    13    34    25    1
    14    25    26    2
    15    25    27   am
    16    27     1    1
    17     1     2   ar
    18     2     3   ar
    19     3     4   ar
    20     4     7    1
    21     7     8    1
    22     8     9    1
    23     9    10    1
    24    10    13    1
    25    13    14    1
    26    14    15    1
    27    15    16   ar
    28    16    17   ar
    29    17    18   ar
    30    18    19   ar
    31    19    21    1
    32    21    22    2
    33    21    23    1
    34    19    20   ar
    35    10    11    1
    36    11    12    1
    37     4     5   ar
    38     5     6   ar
    39    34    35   ar
    40    35    36    1
    41    35    37   ar
    42    37    38   ar
    43    42    43   ar
    44    43    44   ar
    45    44    39   ar
    46    38    29   ar
    47    37    32   ar
    48     6     1   ar
    49    12     7    1
    50    20    15   ar
    51    27    28    1
    52    23    24    1
@<TRIPOS>MOLECULE
*****
 47 52 0 0 0
SMALL
GASTEIGER

@<TRIPOS>ATOM
      1 C          10.2119   79.1509   23.9051 C.ar    1  UNL1        0.0702
      2 C           9.7346   80.4703   23.9541 C.ar    1  UNL1        0.0191
      3 C          10.5836   81.5087   24.3398 C.ar    1  UNL1        0.0356
      4 C          11.9138   81.2246   24.6821 C.ar    1  UNL1        0.1318
      5 N          12.3463   79.9331   24.6583 N.ar    1  UNL1       -0.2279
      6 C          11.5374   78.9058   24.2869 C.ar    1  UNL1        0.1149
      7 N          12.8092   82.2729   25.0967 N.pl3   1  UNL1       -0.2932
      8 C          13.2848   83.2697   24.1271 C.3     1  UNL1        0.0923
      9 C          13.4086   84.6392   24.7990 C.3     1  UNL1        0.0252
     10 C          14.2825   84.5436   26.0634 C.3     1  UNL1        0.0472
     11 C          13.6973   83.5024   27.0374 C.3     1  UNL1        0.0252
     12 C          13.5510   82.1370   26.3568 C.3     1  UNL1        0.0923
     13 C          14.4750   85.9101   26.7523 C.3     1  UNL1        0.2054
     14 O          14.0548   86.9975   25.9227 O.3     1  UNL1       -0.4755
     15 C          14.8510   87.7244   25.0210 C.ar    1  UNL1        0.1388
     16 C          14.1998   88.4445   24.0139 C.ar    1  UNL1        0.0369
     17 C          14.9302   89.1834   23.0823 C.ar    1  UNL1        0.0033
     18 C          16.3240   89.2132   23.1480 C.ar    1  UNL1        0.0066
     19 C          17.0030   88.5039   24.1537 C.ar    1  UNL1        0.0785
     20 C          16.2590   87.7646   25.0918 C.ar    1  UNL1        0.0433
     21 C          18.4814   88.5314   24.2262 C.2     1  UNL1        0.3381
     22 O          19.0708   89.4084   24.9142 O.2     1  UNL1       -0.2451
     23 O          19.2367   87.5887   23.5333 O.3     1  UNL1       -0.4771
     24 H          20.2487   87.5996   23.5757 H       1  UNL1        0.2954
     25 C           9.0882   77.6724   22.1806 C.2     1  UNL1        0.2839
     26 O           9.9173   77.9459   21.2715 O.2     1  UNL1       -0.2665
     27 N           9.3608   78.0515   23.5380 N.am    1  UNL1       -0.2766
     28 H           9.0083   77.4275   24.2978 H       1  UNL1        0.1553
     29 C           4.0429   74.7713   20.6789 C.ar    1  UNL1        0.0002
     30 C           4.7964   73.6963   21.2235 C.ar    1  UNL1        0.0031
     31 C           6.0951   73.9050   21.7198 C.ar    1  UNL1        0.0375
     32 C           6.6174   75.1924   21.6607 C.ar    1  UNL1        0.1452
     33 O           7.7970   75.5933   22.0677 O.2     1  UNL1       -0.4492
     34 C           7.8882   76.8907   21.8336 C.ar    1  UNL1        0.1946
     35 C           6.7150   77.3504   21.2221 C.ar    1  UNL1        0.0202
     36 C           6.3885   78.7358   20.7521 C.3     1  UNL1        0.0345
     37 C           5.9038   76.2363   21.1379 C.ar    1  UNL1        0.0337
     38 C           4.6129   76.0665   20.6371 C.ar    1  UNL1        0.0028
     39 C           0.0562   74.0976   19.1687 C.ar    1  UNL1        0.0347
     40 C           0.7446   75.2887   18.8743 C.ar    1  UNL1        0.0028
     41 C           2.0359   75.5064   19.3627 C.ar    1  UNL1        0.0001
     42 C           2.6714   74.5393   20.1587 C.ar    1  UNL1        0.0000
     43 C           1.9865   73.3490   20.4551 C.ar    1  UNL1        0.0001
     44 C           0.6956   73.1297   19.9663 C.ar    1  UNL1        0.0028
     45 C          -2.4732   74.7395   19.0612 C.3     1  UNL1        0.0773
     46 C          -1.3179   73.8813   18.6405 C.2     1  UNL1        0.1735
     47 O          -1.5317   72.9525   17.8144 O.2     1  UNL1       -0.2913
@<TRIPOS>BOND
     1    45    46    1
     2    46    47    2
     3    46    39    1
     4    39    40   ar
     5    40    41   ar
     6    41    42   ar
     7    42    29    1
     8    29    30   ar
     9    30    31   ar
    10    31    32   ar
    11    32    33   ar
    12    33    34   ar
    13    34    25    1
    14    25    26    2
    15    25    27   am
    16    27     1    1
    17     1     2   ar
    18     2     3   ar
    19     3     4   ar
    20     4     7    1
    21     7     8    1
    22     8     9    1
    23     9    10    1
    24    10    13    1
    25    13    14    1
    26    14    15    1
    27    15    16   ar
    28    16    17   ar
    29    17    18   ar
    30    18    19   ar
    31    19    21    1
    32    21    22    2
    33    21    23    1
    34    19    20   ar
    35    10    11    1
    36    11    12    1
    37     4     5   ar
    38     5     6   ar
    39    34    35   ar
    40    35    36    1
    41    35    37   ar
    42    37    38   ar
    43    42    43   ar
    44    43    44   ar
    45    44    39   ar
    46    38    29   ar
    47    37    32   ar
    48     6     1   ar
    49    12     7    1
    50    20    15   ar
    51    27    28    1
    52    23    24    1
@<TRIPOS>MOLECULE
*****
 47 52 0 0 0
SMALL
GASTEIGER

@<TRIPOS>ATOM
      1 C           8.8499   77.2726   21.7097 C.ar    1  UNL1        0.0702
      2 C           8.7932   75.8701   21.7366 C.ar    1  UNL1        0.0191
      3 C           7.6493   75.2063   21.2908 C.ar    1  UNL1        0.0356
      4 C           6.5564   75.9494   20.8209 C.ar    1  UNL1        0.1318
      5 N           6.6213   77.3100   20.8340 N.ar    1  UNL1       -0.2279
      6 C           7.7242   77.9778   21.2642 C.ar    1  UNL1        0.1149
      7 N           5.3579   75.2932   20.3674 N.pl3   1  UNL1       -0.2932
      8 C           4.6434   74.3600   21.2497 C.3     1  UNL1        0.0923
      9 C           3.1332   74.4852   21.0347 C.3     1  UNL1        0.0252
     10 C           2.7837   74.3147   19.5446 C.3     1  UNL1        0.0472
     11 C           3.5491   75.3491   18.6965 C.3     1  UNL1        0.0252
     12 C           5.0599   75.2395   18.9305 C.3     1  UNL1        0.0923
     13 C           1.2655   74.3875   19.2825 C.3     1  UNL1        0.2054
     14 O           0.7699   75.7283   19.3463 O.3     1  UNL1       -0.4755
     15 C           1.2086   76.7473   20.2092 C.ar    1  UNL1        0.1388
     16 C           0.3842   77.0847   21.2879 C.ar    1  UNL1        0.0369
     17 C           0.7570   78.0909   22.1800 C.ar    1  UNL1        0.0033
     18 C           1.9626   78.7721   22.0053 C.ar    1  UNL1        0.0066
     19 C           2.8124   78.4486   20.9335 C.ar    1  UNL1        0.0785
     20 C           2.4313   77.4298   20.0407 C.ar    1  UNL1        0.0433
     21 C           4.0912   79.1696   20.7435 C.2     1  UNL1        0.3381
     22 O           4.5039   79.9792   21.6177 O.2     1  UNL1       -0.2451
     23 O           4.8514   78.9617   19.5954 O.3     1  UNL1       -0.4771
     24 H           5.7274   79.4508   19.4555 H       1  UNL1        0.2954
     25 C          10.5474   77.8418   23.5032 C.2     1  UNL1        0.2839
     26 O          10.3732   76.7672   24.1384 O.2     1  UNL1       -0.2665
     27 N          10.0003   77.9927   22.1847 N.am    1  UNL1       -0.2766
     28 H          10.5325   78.5756   21.5007 H       1  UNL1        0.1553
     29 C          13.7034   82.3355   25.9472 C.ar    1  UNL1        0.0002
     30 C          14.7316   81.3677   25.7850 C.ar    1  UNL1        0.0031
     31 C          14.4525   80.1054   25.2324 C.ar    1  UNL1        0.0375
     32 C          13.1429   79.8346   24.8514 C.ar    1  UNL1        0.1452
     33 O          12.6798   78.7296   24.3201 O.2     1  UNL1       -0.4492
     34 C          11.3861   78.8931   24.1056 C.ar    1  UNL1        0.1946
     35 C          10.9852   80.1623   24.5416 C.ar    1  UNL1        0.0202
     36 C           9.6127   80.7646   24.5248 C.3     1  UNL1        0.0345
     37 C          12.1430   80.7564   25.0030 C.ar    1  UNL1        0.0337
     38 C          12.3831   82.0185   25.5467 C.ar    1  UNL1        0.0028
     39 C          14.5928   86.2033   27.6434 C.ar    1  UNL1        0.0347
     40 C          14.4904   85.0650   28.4638 C.ar    1  UNL1        0.0028
     41 C          14.2032   83.8125   27.9144 C.ar    1  UNL1        0.0001
     42 C          14.0100   83.6661   26.5308 C.ar    1  UNL1        0.0000
     43 C          14.1110   84.8010   25.7088 C.ar    1  UNL1        0.0001
     44 C          14.3993   86.0540   26.2570 C.ar    1  UNL1        0.0028
     45 C          15.8323   88.5016   27.5856 C.3     1  UNL1        0.0773
     46 C          14.8997   87.5295   28.2442 C.2     1  UNL1        0.1735
     47 O          14.3673   87.8588   29.3392 O.2     1  UNL1       -0.2913
@<TRIPOS>BOND
     1    45    46    1
     2    46    47    2
     3    46    39    1
     4    39    40   ar
     5    40    41   ar
     6    41    42   ar
     7    42    29    1
     8    29    30   ar
     9    30    31   ar
    10    31    32   ar
    11    32    33   ar
    12    33    34   ar
    13    34    25    1
    14    25    26    2
    15    25    27   am
    16    27     1    1
    17     1     2   ar
    18     2     3   ar
    19     3     4   ar
    20     4     7    1
    21     7     8    1
    22     8     9    1
    23     9    10    1
    24    10    13    1
    25    13    14    1
    26    14    15    1
    27    15    16   ar
    28    16    17   ar
    29    17    18   ar
    30    18    19   ar
    31    19    21    1
    32    21    22    2
    33    21    23    1
    34    19    20   ar
    35    10    11    1
    36    11    12    1
    37     4     5   ar
    38     5     6   ar
    39    34    35   ar
    40    35    36    1
    41    35    37   ar
    42    37    38   ar
    43    42    43   ar
    44    43    44   ar
    45    44    39   ar
    46    38    29   ar
    47    37    32   ar
    48     6     1   ar
    49    12     7    1
    50    20    15   ar
    51    27    28    1
    52    23    24    1
@<TRIPOS>MOLECULE
*****
 47 52 0 0 0
SMALL
GASTEIGER

@<TRIPOS>ATOM
      1 C           9.2852   77.3543   21.8988 C.ar    1  UNL1        0.0702
      2 C           9.3149   75.9550   21.7873 C.ar    1  UNL1        0.0191
      3 C           8.1991   75.2664   21.3092 C.ar    1  UNL1        0.0356
      4 C           7.0478   75.9806   20.9459 C.ar    1  UNL1        0.1318
      5 N           7.0303   77.3347   21.0927 N.ar    1  UNL1       -0.2279
      6 C           8.1045   78.0264   21.5569 C.ar    1  UNL1        0.1149
      7 N           5.8769   75.2967   20.4623 N.pl3   1  UNL1       -0.2932
      8 C           5.7414   73.8436   20.6356 C.3     1  UNL1        0.0923
      9 C           4.2803   73.4812   20.9118 C.3     1  UNL1        0.0252
     10 C           3.3641   74.0595   19.8174 C.3     1  UNL1        0.0472
     11 C           3.5452   75.5871   19.7239 C.3     1  UNL1        0.0252
     12 C           5.0126   75.9506   19.4714 C.3     1  UNL1        0.0923
     13 C           1.8834   73.6820   20.0271 C.3     1  UNL1        0.2054
     14 O           0.9947   74.7062   19.5703 O.3     1  UNL1       -0.4755
     15 C          -0.3300   74.5368   19.1323 C.ar    1  UNL1        0.1388
     16 C          -0.6392   73.3630   18.4369 C.ar    1  UNL1        0.0369
     17 C          -1.9338   73.1337   17.9693 C.ar    1  UNL1        0.0033
     18 C          -2.9381   74.0765   18.1940 C.ar    1  UNL1        0.0066
     19 C          -2.6559   75.2614   18.8954 C.ar    1  UNL1        0.0785
     20 C          -1.3489   75.4833   19.3673 C.ar    1  UNL1        0.0433
     21 C          -3.7176   76.2649   19.1345 C.2     1  UNL1        0.3381
     22 O          -3.6293   77.0701   20.1009 O.2     1  UNL1       -0.2451
     23 O          -4.8264   76.3289   18.2944 O.3     1  UNL1       -0.4771
     24 H          -5.5587   77.0112   18.4500 H       1  UNL1        0.2954
     25 C          10.8398   78.0419   23.7784 C.2     1  UNL1        0.2839
     26 O          10.5958   77.0215   24.4768 O.2     1  UNL1       -0.2665
     27 N          10.4051   78.0964   22.4114 N.am    1  UNL1       -0.2766
     28 H          11.0014   78.6190   21.7315 H       1  UNL1        0.1553
     29 C          13.8464   82.6625   26.1738 C.ar    1  UNL1        0.0002
     30 C          14.9145   81.7463   25.9738 C.ar    1  UNL1        0.0031
     31 C          14.6803   80.4764   25.4177 C.ar    1  UNL1        0.0375
     32 C          13.3747   80.1462   25.0712 C.ar    1  UNL1        0.1452
     33 O          12.9499   79.0245   24.5431 O.2     1  UNL1       -0.4492
     34 C          11.6442   79.1274   24.3666 C.ar    1  UNL1        0.1946
     35 C          11.1959   80.3725   24.8253 C.ar    1  UNL1        0.0202
     36 C           9.7963   80.9085   24.8526 C.3     1  UNL1        0.0345
     37 C          12.3368   81.0178   25.2594 C.ar    1  UNL1        0.0337
     38 C          12.5318   82.2856   25.8076 C.ar    1  UNL1        0.0028
     39 C          14.5983   86.5551   27.8795 C.ar    1  UNL1        0.0347
     40 C          14.5246   85.4135   28.6984 C.ar    1  UNL1        0.0028
     41 C          14.2819   84.1530   28.1460 C.ar    1  UNL1        0.0001
     42 C          14.1057   84.0017   26.7607 C.ar    1  UNL1        0.0000
     43 C          14.1781   85.1398   25.9401 C.ar    1  UNL1        0.0001
     44 C          14.4219   86.4008   26.4914 C.ar    1  UNL1        0.0028
     45 C          15.7747   88.8867   27.8400 C.3     1  UNL1        0.0773
     46 C          14.8579   87.8899   28.4837 C.2     1  UNL1        0.1735
     47 O          14.2976   88.2054   29.5687 O.2     1  UNL1       -0.2913
@<TRIPOS>BOND
     1    45    46    1
     2    46    47    2
     3    46    39    1
     4    39    40   ar
     5    40    41   ar
     6    41    42   ar
     7    42    29    1
     8    29    30   ar
     9    30    31   ar
    10    31    32   ar
    11    32    33   ar
    12    33    34   ar
    13    34    25    1
    14    25    26    2
    15    25    27   am
    16    27     1    1
    17     1     2   ar
    18     2     3   ar
    19     3     4   ar
    20     4     7    1
    21     7     8    1
    22     8     9    1
    23     9    10    1
    24    10    13    1
    25    13    14    1
    26    14    15    1
    27    15    16   ar
    28    16    17   ar
    29    17    18   ar
    30    18    19   ar
    31    19    21    1
    32    21    22    2
    33    21    23    1
    34    19    20   ar
    35    10    11    1
    36    11    12    1
    37     4     5   ar
    38     5     6   ar
    39    34    35   ar
    40    35    36    1
    41    35    37   ar
    42    37    38   ar
    43    42    43   ar
    44    43    44   ar
    45    44    39   ar
    46    38    29   ar
    47    37    32   ar
    48     6     1   ar
    49    12     7    1
    50    20    15   ar
    51    27    28    1
    52    23    24    1
