@<TRIPOS>MOLECULE
*****
 50 55 0 0 0
SMALL
GASTEIGER

@<TRIPOS>ATOM
      1 O          58.9344   83.7853   11.3985 O.2     1  UNL1       -0.2701
      2 C          59.7203   83.7552   12.3843 C.2     1  UNL1        0.2483
      3 N          59.9123   82.5286   13.1151 N.am    1  UNL1       -0.2945
      4 H          60.6040   82.5126   13.8976 H       1  UNL1        0.1501
      5 C          60.4476   84.9870   12.7686 C.ar    1  UNL1        0.0808
      6 C          60.1536   85.6410   13.9767 C.ar    1  UNL1        0.0080
      7 C          60.8376   86.8037   14.3403 C.ar    1  UNL1        0.0148
      8 C          61.8309   87.3413   13.5039 C.ar    1  UNL1        0.0502
      9 C          62.1165   86.6935   12.2900 C.ar    1  UNL1        0.0443
     10 C          61.4332   85.5301   11.9230 C.ar    1  UNL1        0.1457
     11 F          61.7591   84.9205   10.7546 F       1  UNL1       -0.2040
     12 N          62.5366   88.5456   13.8775 N.pl3   1  UNL1       -0.3040
     13 C          62.3064   89.1599   15.1953 C.3     1  UNL1        0.1123
     14 C          63.5845   89.8315   15.7113 C.3     1  UNL1        0.1136
     15 N          64.2058   90.6738   14.6822 N.pl3   1  UNL1       -0.2894
     16 C          63.6923   90.6673   13.3081 C.3     1  UNL1        0.1136
     17 C          63.3749   89.2329   12.8799 C.3     1  UNL1        0.1123
     18 C          65.4224   91.3672   14.9967 C.ar    1  UNL1        0.1371
     19 N          66.5590   91.0501   14.3188 N.ar    1  UNL1       -0.2288
     20 C          67.7428   91.6729   14.5556 C.ar    1  UNL1        0.1042
     21 C          67.8268   92.6901   15.5175 C.ar    1  UNL1        0.0910
     22 C          66.6777   93.0026   16.2590 C.ar    1  UNL1        0.0140
     23 C          65.4684   92.3505   16.0022 C.ar    1  UNL1        0.0616
     24 I          63.8015   92.8172   17.2235 I       1  UNL1       -0.0396
     25 C          69.1451   93.3530   15.8253 C.3     1  UNL1        0.4200
     26 F          68.9510   94.6626   16.2297 F       1  UNL1       -0.1658
     27 F          69.8040   92.6798   16.8395 F       1  UNL1       -0.1658
     28 F          69.9352   93.3441   14.6910 F       1  UNL1       -0.1658
     29 C          59.2948   81.2427   12.7534 C.3     1  UNL1        0.1535
     30 C          58.7488   81.2614   11.3447 C.2     1  UNL1        0.2443
     31 O          57.5026   81.2553   11.1468 O.2     1  UNL1       -0.2730
     32 N          59.6529   81.1942   10.2303 N.am    1  UNL1       -0.2825
     33 H          60.6156   80.8267   10.4056 H       1  UNL1        0.1549
     34 C          59.2845   81.5068    8.8760 C.ar    1  UNL1        0.0535
     35 C          60.0887   82.3758    8.1259 C.ar    1  UNL1        0.0353
     36 C          59.7227   82.7008    6.8175 C.ar    1  UNL1        0.1002
     37 N          58.5834   82.1895    6.2811 N.ar    1  UNL1       -0.2422
     38 C          57.7730   81.3598    6.9899 C.ar    1  UNL1        0.1002
     39 C          58.1027   81.0082    8.3014 C.ar    1  UNL1        0.0353
     40 C          60.2736   80.0680   12.9618 C.3     1  UNL1        0.0569
     41 C          61.6660   80.5567   13.2393 C.ar    1  UNL1       -0.0017
     42 C          62.4005   80.3531   14.4042 C.ar    1  UNL1        0.0681
     43 N          63.6464   80.8621   14.2713 N.ar    1  UNL1       -0.3523
     44 C          63.7078   81.3754   13.0302 C.ar    1  UNL1        0.0563
     45 C          64.8009   81.9933   12.4242 C.ar    1  UNL1        0.0170
     46 C          64.6510   82.4427   11.0993 C.ar    1  UNL1        0.0015
     47 C          63.4271   82.2633   10.4167 C.ar    1  UNL1        0.0001
     48 C          62.3415   81.6341   11.0528 C.ar    1  UNL1        0.0012
     49 C          62.5192   81.2038   12.3678 C.ar    1  UNL1        0.0131
     50 H          64.4084   80.8435   14.9851 H       1  UNL1        0.1660
@<TRIPOS>BOND
     1     1     2    2
     2     2     3   am
     3     3    29    1
     4    29    40    1
     5    40    41    1
     6    41    42   ar
     7    42    43   ar
     8    43    44   ar
     9    44    45   ar
    10    45    46   ar
    11    46    47   ar
    12    47    48   ar
    13    48    49   ar
    14    29    30    1
    15    30    31    2
    16    30    32   am
    17    32    34    1
    18    34    35   ar
    19    35    36   ar
    20    36    37   ar
    21    37    38   ar
    22    38    39   ar
    23     2     5    1
    24     5     6   ar
    25     6     7   ar
    26     7     8   ar
    27     8    12    1
    28    12    13    1
    29    13    14    1
    30    14    15    1
    31    15    18    1
    32    18    19   ar
    33    19    20   ar
    34    20    21   ar
    35    21    25    1
    36    25    26    1
    37    25    27    1
    38    25    28    1
    39    21    22   ar
    40    22    23   ar
    41    23    24    1
    42    15    16    1
    43    16    17    1
    44     8     9   ar
    45     9    10   ar
    46    10    11    1
    47    49    41   ar
    48    39    34   ar
    49    10     5   ar
    50    49    44   ar
    51    17    12    1
    52    23    18   ar
    53     3     4    1
    54    43    50    1
    55    32    33    1
@<TRIPOS>MOLECULE
*****
 50 55 0 0 0
SMALL
GASTEIGER

@<TRIPOS>ATOM
      1 O          58.0603   85.8966   10.8205 O.2     1  UNL1       -0.2701
      2 C          59.2114   86.1769   10.3884 C.2     1  UNL1        0.2483
      3 N          60.3624   85.4766   10.8987 N.am    1  UNL1       -0.2945
      4 H          61.3010   85.6893   10.4928 H       1  UNL1        0.1501
      5 C          59.3600   87.2194    9.3468 C.ar    1  UNL1        0.0808
      6 C          58.8557   87.0110    8.0523 C.ar    1  UNL1        0.0080
      7 C          58.9961   87.9927    7.0681 C.ar    1  UNL1        0.0148
      8 C          59.6455   89.2058    7.3544 C.ar    1  UNL1        0.0502
      9 C          60.1603   89.4092    8.6460 C.ar    1  UNL1        0.0443
     10 C          60.0219   88.4284    9.6329 C.ar    1  UNL1        0.1457
     11 F          60.5096   88.6764   10.8753 F       1  UNL1       -0.2040
     12 N          59.7941   90.2204    6.3364 N.pl3   1  UNL1       -0.3040
     13 C          61.1037   90.8518    6.1061 C.3     1  UNL1        0.1123
     14 C          61.2763   91.2192    4.6275 C.3     1  UNL1        0.1136
     15 N          60.0972   91.9186    4.1031 N.pl3   1  UNL1       -0.2894
     16 C          58.8847   92.0442    4.9192 C.3     1  UNL1        0.1136
     17 C          58.6004   90.7206    5.6327 C.3     1  UNL1        0.1123
     18 C          60.0878   92.3235    2.7263 C.ar    1  UNL1        0.1371
     19 N          58.8960   92.5687    2.1168 N.ar    1  UNL1       -0.2288
     20 C          58.8122   92.9663    0.8206 C.ar    1  UNL1        0.1042
     21 C          59.9764   93.1506    0.0605 C.ar    1  UNL1        0.0910
     22 C          61.2133   92.8609    0.6555 C.ar    1  UNL1        0.0140
     23 C          61.2803   92.4519    1.9904 C.ar    1  UNL1        0.0616
     24 I          63.1773   91.9500    2.7887 I       1  UNL1       -0.0396
     25 C          59.8944   93.5417   -1.3929 C.3     1  UNL1        0.4200
     26 F          59.2949   94.7816   -1.5322 F       1  UNL1       -0.1658
     27 F          61.1589   93.6069   -1.9520 F       1  UNL1       -0.1658
     28 F          59.1473   92.6005   -2.0763 F       1  UNL1       -0.1658
     29 C          60.2982   84.3741   11.8714 C.3     1  UNL1        0.1535
     30 C          61.0399   84.7082   13.1447 C.2     1  UNL1        0.2443
     31 O          61.9555   83.9480   13.5641 O.2     1  UNL1       -0.2730
     32 N          60.6379   85.8457   13.9246 N.am    1  UNL1       -0.2825
     33 H          59.6751   86.2239   13.7741 H       1  UNL1        0.1549
     34 C          61.4394   86.4310   14.9651 C.ar    1  UNL1        0.0535
     35 C          61.4493   85.8463   16.2390 C.ar    1  UNL1        0.0353
     36 C          62.2081   86.4244   17.2595 C.ar    1  UNL1        0.1002
     37 N          62.9198   87.5576   17.0219 N.ar    1  UNL1       -0.2422
     38 C          62.9149   88.1586   15.8028 C.ar    1  UNL1        0.1002
     39 C          62.1704   87.6127   14.7540 C.ar    1  UNL1        0.0353
     40 C          58.8398   83.9617   12.1616 C.3     1  UNL1        0.0569
     41 C          58.4873   82.6730   11.4763 C.ar    1  UNL1       -0.0017
     42 C          58.0928   82.5189   10.1502 C.ar    1  UNL1        0.0681
     43 N          57.9371   81.2086    9.8536 N.ar    1  UNL1       -0.3523
     44 C          58.2398   80.5347   10.9770 C.ar    1  UNL1        0.0563
     45 C          58.2442   79.1523   11.1581 C.ar    1  UNL1        0.0170
     46 C          58.6158   78.6558   12.4211 C.ar    1  UNL1        0.0015
     47 C          58.9739   79.5420   13.4616 C.ar    1  UNL1        0.0001
     48 C          58.9625   80.9326   13.2492 C.ar    1  UNL1        0.0012
     49 C          58.5851   81.3944   11.9882 C.ar    1  UNL1        0.0131
     50 H          57.6547   80.8057    8.9325 H       1  UNL1        0.1660
@<TRIPOS>BOND
     1     1     2    2
     2     2     3   am
     3     3    29    1
     4    29    40    1
     5    40    41    1
     6    41    42   ar
     7    42    43   ar
     8    43    44   ar
     9    44    45   ar
    10    45    46   ar
    11    46    47   ar
    12    47    48   ar
    13    48    49   ar
    14    29    30    1
    15    30    31    2
    16    30    32   am
    17    32    34    1
    18    34    35   ar
    19    35    36   ar
    20    36    37   ar
    21    37    38   ar
    22    38    39   ar
    23     2     5    1
    24     5     6   ar
    25     6     7   ar
    26     7     8   ar
    27     8    12    1
    28    12    13    1
    29    13    14    1
    30    14    15    1
    31    15    18    1
    32    18    19   ar
    33    19    20   ar
    34    20    21   ar
    35    21    25    1
    36    25    26    1
    37    25    27    1
    38    25    28    1
    39    21    22   ar
    40    22    23   ar
    41    23    24    1
    42    15    16    1
    43    16    17    1
    44     8     9   ar
    45     9    10   ar
    46    10    11    1
    47    49    41   ar
    48    39    34   ar
    49    10     5   ar
    50    49    44   ar
    51    17    12    1
    52    23    18   ar
    53     3     4    1
    54    43    50    1
    55    32    33    1
@<TRIPOS>MOLECULE
*****
 50 55 0 0 0
SMALL
GASTEIGER

@<TRIPOS>ATOM
      1 O          58.5226   85.0573   10.0816 O.2     1  UNL1       -0.2701
      2 C          59.3309   86.0072   10.2677 C.2     1  UNL1        0.2483
      3 N          60.1359   86.0443   11.4619 N.am    1  UNL1       -0.2945
      4 H          60.8338   86.8133   11.5741 H       1  UNL1        0.1501
      5 C          59.4489   87.0693    9.2420 C.ar    1  UNL1        0.0808
      6 C          58.8146   86.9310    7.9962 C.ar    1  UNL1        0.0080
      7 C          58.9257   87.9311    7.0270 C.ar    1  UNL1        0.0148
      8 C          59.6752   89.0929    7.2797 C.ar    1  UNL1        0.0502
      9 C          60.3193   89.2256    8.5216 C.ar    1  UNL1        0.0443
     10 C          60.2104   88.2262    9.4933 C.ar    1  UNL1        0.1457
     11 F          60.8259   88.4066   10.6898 F       1  UNL1       -0.2040
     12 N          59.7936   90.1263    6.2768 N.pl3   1  UNL1       -0.3040
     13 C          61.0842   90.7987    6.0554 C.3     1  UNL1        0.1123
     14 C          61.2448   91.1927    4.5823 C.3     1  UNL1        0.1136
     15 N          60.0455   91.8655    4.0689 N.pl3   1  UNL1       -0.2894
     16 C          58.8306   91.9439    4.8873 C.3     1  UNL1        0.1136
     17 C          58.5853   90.6022    5.5811 C.3     1  UNL1        0.1123
     18 C          60.0232   92.2903    2.6982 C.ar    1  UNL1        0.1371
     19 N          58.8267   92.5572    2.1076 N.ar    1  UNL1       -0.2288
     20 C          58.7309   92.9743    0.8183 C.ar    1  UNL1        0.1042
     21 C          59.8874   93.1570    0.0462 C.ar    1  UNL1        0.0910
     22 C          61.1284   92.8454    0.6211 C.ar    1  UNL1        0.0140
     23 C          61.2077   92.4165    1.9491 C.ar    1  UNL1        0.0616
     24 I          63.1090   91.8826    2.7159 I       1  UNL1       -0.0396
     25 C          59.7914   93.5699   -1.4003 C.3     1  UNL1        0.4200
     26 F          61.0162   93.4318   -2.0303 F       1  UNL1       -0.1658
     27 F          58.8688   92.7855   -2.0707 F       1  UNL1       -0.1658
     28 F          59.3947   94.8923   -1.4710 F       1  UNL1       -0.1658
     29 C          60.1419   84.9922   12.4909 C.3     1  UNL1        0.1535
     30 C          59.9563   83.6193   11.8876 C.2     1  UNL1        0.2443
     31 O          60.8232   83.1496   11.1002 O.2     1  UNL1       -0.2730
     32 N          58.7460   82.8883   12.1416 N.am    1  UNL1       -0.2825
     33 H          57.9106   83.4266   12.4656 H       1  UNL1        0.1549
     34 C          58.5864   81.4828   11.8834 C.ar    1  UNL1        0.0535
     35 C          58.0566   81.0632   10.6555 C.ar    1  UNL1        0.0353
     36 C          57.8780   79.6999   10.4088 C.ar    1  UNL1        0.1002
     37 N          58.2013   78.7864   11.3617 N.ar    1  UNL1       -0.2422
     38 C          58.6989   79.1631   12.5692 C.ar    1  UNL1        0.1002
     39 C          58.8942   80.5165   12.8565 C.ar    1  UNL1        0.0353
     40 C          61.4167   85.0579   13.3580 C.3     1  UNL1        0.0569
     41 C          61.3613   86.2017   14.3292 C.ar    1  UNL1       -0.0017
     42 C          60.5362   86.3033   15.4458 C.ar    1  UNL1        0.0681
     43 N          60.8151   87.4316   16.1374 N.ar    1  UNL1       -0.3523
     44 C          61.8152   88.0369   15.4732 C.ar    1  UNL1        0.0563
     45 C          62.4576   89.2265   15.8138 C.ar    1  UNL1        0.0170
     46 C          63.5012   89.6718   14.9817 C.ar    1  UNL1        0.0015
     47 C          63.8771   88.9248   13.8429 C.ar    1  UNL1        0.0001
     48 C          63.2122   87.7265   13.5250 C.ar    1  UNL1        0.0012
     49 C          62.1789   87.3136   14.3662 C.ar    1  UNL1        0.0131
     50 H          60.3554   87.7548   17.0175 H       1  UNL1        0.1660
@<TRIPOS>BOND
     1     1     2    2
     2     2     3   am
     3     3    29    1
     4    29    40    1
     5    40    41    1
     6    41    42   ar
     7    42    43   ar
     8    43    44   ar
     9    44    45   ar
    10    45    46   ar
    11    46    47   ar
    12    47    48   ar
    13    48    49   ar
    14    29    30    1
    15    30    31    2
    16    30    32   am
    17    32    34    1
    18    34    35   ar
    19    35    36   ar
    20    36    37   ar
    21    37    38   ar
    22    38    39   ar
    23     2     5    1
    24     5     6   ar
    25     6     7   ar
    26     7     8   ar
    27     8    12    1
    28    12    13    1
    29    13    14    1
    30    14    15    1
    31    15    18    1
    32    18    19   ar
    33    19    20   ar
    34    20    21   ar
    35    21    25    1
    36    25    26    1
    37    25    27    1
    38    25    28    1
    39    21    22   ar
    40    22    23   ar
    41    23    24    1
    42    15    16    1
    43    16    17    1
    44     8     9   ar
    45     9    10   ar
    46    10    11    1
    47    49    41   ar
    48    39    34   ar
    49    10     5   ar
    50    49    44   ar
    51    17    12    1
    52    23    18   ar
    53     3     4    1
    54    43    50    1
    55    32    33    1
@<TRIPOS>MOLECULE
*****
 50 55 0 0 0
SMALL
GASTEIGER

@<TRIPOS>ATOM
      1 O          60.5047   85.9748    7.5408 O.2     1  UNL1       -0.2701
      2 C          60.4238   85.8979    8.7970 C.2     1  UNL1        0.2483
      3 N          59.6840   84.8223    9.4065 N.am    1  UNL1       -0.2945
      4 H          59.6699   84.7490   10.4483 H       1  UNL1        0.1501
      5 C          61.1063   86.9146    9.6303 C.ar    1  UNL1        0.0808
      6 C          61.8630   86.5283   10.7491 C.ar    1  UNL1        0.0080
      7 C          62.5065   87.4858   11.5371 C.ar    1  UNL1        0.0148
      8 C          62.4075   88.8529   11.2262 C.ar    1  UNL1        0.0502
      9 C          61.6408   89.2399   10.1139 C.ar    1  UNL1        0.0443
     10 C          60.9951   88.2839    9.3237 C.ar    1  UNL1        0.1457
     11 F          60.2870   88.6986    8.2422 F       1  UNL1       -0.2040
     12 N          63.0698   89.8443   12.0424 N.pl3   1  UNL1       -0.3040
     13 C          62.7487   89.9588   13.4744 C.3     1  UNL1        0.1123
     14 C          63.9817   90.3973   14.2734 C.3     1  UNL1        0.1136
     15 N          64.6528   91.5425   13.6467 N.pl3   1  UNL1       -0.2894
     16 C          64.2258   92.0223   12.3279 C.3     1  UNL1        0.1136
     17 C          63.9578   90.8318   11.4046 C.3     1  UNL1        0.1123
     18 C          65.8366   92.0724   14.2611 C.ar    1  UNL1        0.1371
     19 N          66.9810   92.1559   13.5296 N.ar    1  UNL1       -0.2288
     20 C          68.1348   92.6573   14.0421 C.ar    1  UNL1        0.1042
     21 C          68.1776   93.1239   15.3640 C.ar    1  UNL1        0.0910
     22 C          67.0215   93.0066   16.1498 C.ar    1  UNL1        0.0140
     23 C          65.8434   92.4872   15.6057 C.ar    1  UNL1        0.0616
     24 I          64.1670   92.2621   16.8812 I       1  UNL1       -0.0396
     25 C          69.4645   93.6348   15.9600 C.3     1  UNL1        0.4200
     26 F          69.9339   92.7644   16.9285 F       1  UNL1       -0.1658
     27 F          70.4372   93.7613   14.9834 F       1  UNL1       -0.1658
     28 F          69.2403   94.8714   16.5358 F       1  UNL1       -0.1658
     29 C          59.0457   83.7272    8.6589 C.3     1  UNL1        0.1535
     30 C          59.9613   82.5325    8.5269 C.2     1  UNL1        0.2443
     31 O          60.1802   82.0227    7.3936 O.2     1  UNL1       -0.2730
     32 N          60.5098   81.9227    9.7063 N.am    1  UNL1       -0.2825
     33 H          60.0329   82.1090   10.6177 H       1  UNL1        0.1549
     34 C          61.6097   80.9967    9.6954 C.ar    1  UNL1        0.0535
     35 C          61.3669   79.6408    9.4363 C.ar    1  UNL1        0.0353
     36 C          62.4289   78.7334    9.4474 C.ar    1  UNL1        0.1002
     37 N          63.6887   79.1615    9.7245 N.ar    1  UNL1       -0.2422
     38 C          63.9529   80.4663    9.9987 C.ar    1  UNL1        0.1002
     39 C          62.9198   81.4070    9.9969 C.ar    1  UNL1        0.0353
     40 C          57.6913   83.3315    9.2838 C.3     1  UNL1        0.0569
     41 C          57.7371   81.9459    9.8606 C.ar    1  UNL1       -0.0017
     42 C          57.4495   80.7589    9.1927 C.ar    1  UNL1        0.0681
     43 N          57.6761   79.6970    9.9992 N.ar    1  UNL1       -0.3523
     44 C          58.1136   80.2029   11.1655 C.ar    1  UNL1        0.0563
     45 C          58.4966   79.4942   12.3035 C.ar    1  UNL1        0.0170
     46 C          58.9458   80.2295   13.4158 C.ar    1  UNL1        0.0015
     47 C          59.0047   81.6402   13.3650 C.ar    1  UNL1        0.0001
     48 C          58.6139   82.3287   12.2021 C.ar    1  UNL1        0.0012
     49 C          58.1687   81.5724   11.1177 C.ar    1  UNL1        0.0131
     50 H          57.5507   78.6894    9.7556 H       1  UNL1        0.1660
@<TRIPOS>BOND
     1     1     2    2
     2     2     3   am
     3     3    29    1
     4    29    40    1
     5    40    41    1
     6    41    42   ar
     7    42    43   ar
     8    43    44   ar
     9    44    45   ar
    10    45    46   ar
    11    46    47   ar
    12    47    48   ar
    13    48    49   ar
    14    29    30    1
    15    30    31    2
    16    30    32   am
    17    32    34    1
    18    34    35   ar
    19    35    36   ar
    20    36    37   ar
    21    37    38   ar
    22    38    39   ar
    23     2     5    1
    24     5     6   ar
    25     6     7   ar
    26     7     8   ar
    27     8    12    1
    28    12    13    1
    29    13    14    1
    30    14    15    1
    31    15    18    1
    32    18    19   ar
    33    19    20   ar
    34    20    21   ar
    35    21    25    1
    36    25    26    1
    37    25    27    1
    38    25    28    1
    39    21    22   ar
    40    22    23   ar
    41    23    24    1
    42    15    16    1
    43    16    17    1
    44     8     9   ar
    45     9    10   ar
    46    10    11    1
    47    49    41   ar
    48    39    34   ar
    49    10     5   ar
    50    49    44   ar
    51    17    12    1
    52    23    18   ar
    53     3     4    1
    54    43    50    1
    55    32    33    1
@<TRIPOS>MOLECULE
*****
 50 55 0 0 0
SMALL
GASTEIGER

@<TRIPOS>ATOM
      1 O          59.7296   86.5322    7.3104 O.2     1  UNL1       -0.2701
      2 C          60.0648   86.2826    8.5002 C.2     1  UNL1        0.2483
      3 N          59.7327   85.0110    9.0904 N.am    1  UNL1       -0.2945
      4 H          60.0618   84.8056   10.0601 H       1  UNL1        0.1501
      5 C          60.8109   87.3034    9.2717 C.ar    1  UNL1        0.0808
      6 C          61.7652   86.9178   10.2279 C.ar    1  UNL1        0.0080
      7 C          62.4690   87.8792   10.9575 C.ar    1  UNL1        0.0148
      8 C          62.2343   89.2493   10.7497 C.ar    1  UNL1        0.0502
      9 C          61.2713   89.6345    9.8016 C.ar    1  UNL1        0.0443
     10 C          60.5648   88.6747    9.0703 C.ar    1  UNL1        0.1457
     11 F          59.6628   89.0901    8.1447 F       1  UNL1       -0.2040
     12 N          62.9593   90.2442   11.5061 N.pl3   1  UNL1       -0.3040
     13 C          62.4957   90.6380   12.8466 C.3     1  UNL1        0.1123
     14 C          63.6830   91.0025   13.7458 C.3     1  UNL1        0.1136
     15 N          64.6148   91.9122   13.0684 N.pl3   1  UNL1       -0.2894
     16 C          64.4386   92.2325   11.6478 C.3     1  UNL1        0.1136
     17 C          64.0767   90.9646   10.8712 C.3     1  UNL1        0.1123
     18 C          65.7920   92.3436   13.7669 C.ar    1  UNL1        0.1371
     19 N          65.7203   92.5715   15.1066 N.ar    1  UNL1       -0.2288
     20 C          66.7965   92.9698   15.8334 C.ar    1  UNL1        0.1042
     21 C          68.0415   93.1502   15.2132 C.ar    1  UNL1        0.0910
     22 C          68.1278   92.9636   13.8256 C.ar    1  UNL1        0.0140
     23 C          67.0094   92.5545   13.0936 C.ar    1  UNL1        0.0616
     24 I          67.1997   92.3796   10.9909 I       1  UNL1       -0.0396
     25 C          69.2303   93.6411   15.9991 C.3     1  UNL1        0.4200
     26 F          70.3012   93.8934   15.1589 F       1  UNL1       -0.1658
     27 F          68.9212   94.8118   16.6700 F       1  UNL1       -0.1658
     28 F          69.5971   92.6773   16.9197 F       1  UNL1       -0.1658
     29 C          59.0674   83.9122    8.3723 C.3     1  UNL1        0.1535
     30 C          59.9076   82.6563    8.3700 C.2     1  UNL1        0.2443
     31 O          60.2169   82.1016    7.2797 O.2     1  UNL1       -0.2730
     32 N          60.2767   82.0450    9.6165 N.am    1  UNL1       -0.2825
     33 H          59.7144   82.2879   10.4635 H       1  UNL1        0.1549
     34 C          61.3045   81.0484    9.7500 C.ar    1  UNL1        0.0535
     35 C          60.9536   79.6914    9.7472 C.ar    1  UNL1        0.0353
     36 C          61.9457   78.7200    9.8998 C.ar    1  UNL1        0.1002
     37 N          63.2427   79.0902   10.0668 N.ar    1  UNL1       -0.2422
     38 C          63.6117   80.3982   10.0932 C.ar    1  UNL1        0.1002
     39 C          62.6512   81.4016    9.9430 C.ar    1  UNL1        0.0353
     40 C          57.6557   83.6434    8.9348 C.3     1  UNL1        0.0569
     41 C          57.6810   83.4846   10.4277 C.ar    1  UNL1       -0.0017
     42 C          57.8467   82.2961   11.1333 C.ar    1  UNL1        0.0681
     43 N          57.9022   82.5405   12.4624 N.ar    1  UNL1       -0.3523
     44 C          57.7835   83.8726   12.6006 C.ar    1  UNL1        0.0563
     45 C          57.8038   84.6043   13.7873 C.ar    1  UNL1        0.0170
     46 C          57.6827   86.0033   13.6992 C.ar    1  UNL1        0.0015
     47 C          57.5491   86.6325   12.4413 C.ar    1  UNL1        0.0001
     48 C          57.5340   85.8686   11.2600 C.ar    1  UNL1        0.0012
     49 C          57.6512   84.4838   11.3801 C.ar    1  UNL1        0.0131
     50 H          58.0281   81.8357   13.2226 H       1  UNL1        0.1660
@<TRIPOS>BOND
     1     1     2    2
     2     2     3   am
     3     3    29    1
     4    29    40    1
     5    40    41    1
     6    41    42   ar
     7    42    43   ar
     8    43    44   ar
     9    44    45   ar
    10    45    46   ar
    11    46    47   ar
    12    47    48   ar
    13    48    49   ar
    14    29    30    1
    15    30    31    2
    16    30    32   am
    17    32    34    1
    18    34    35   ar
    19    35    36   ar
    20    36    37   ar
    21    37    38   ar
    22    38    39   ar
    23     2     5    1
    24     5     6   ar
    25     6     7   ar
    26     7     8   ar
    27     8    12    1
    28    12    13    1
    29    13    14    1
    30    14    15    1
    31    15    18    1
    32    18    19   ar
    33    19    20   ar
    34    20    21   ar
    35    21    25    1
    36    25    26    1
    37    25    27    1
    38    25    28    1
    39    21    22   ar
    40    22    23   ar
    41    23    24    1
    42    15    16    1
    43    16    17    1
    44     8     9   ar
    45     9    10   ar
    46    10    11    1
    47    49    41   ar
    48    39    34   ar
    49    10     5   ar
    50    49    44   ar
    51    17    12    1
    52    23    18   ar
    53     3     4    1
    54    43    50    1
    55    32    33    1
@<TRIPOS>MOLECULE
*****
 50 55 0 0 0
SMALL
GASTEIGER

@<TRIPOS>ATOM
      1 O          59.4694   84.9264    9.9954 O.2     1  UNL1       -0.2701
      2 C          59.4293   86.1407   10.3336 C.2     1  UNL1        0.2483
      3 N          59.3079   86.4974   11.7241 N.am    1  UNL1       -0.2945
      4 H          59.3255   87.5080   11.9873 H       1  UNL1        0.1501
      5 C          59.5213   87.1868    9.2890 C.ar    1  UNL1        0.0808
      6 C          60.2303   88.3753    9.5308 C.ar    1  UNL1        0.0080
      7 C          60.3172   89.3638    8.5473 C.ar    1  UNL1        0.0148
      8 C          59.6959   89.1882    7.2988 C.ar    1  UNL1        0.0502
      9 C          58.9769   88.0044    7.0615 C.ar    1  UNL1        0.0443
     10 C          58.8876   87.0136    8.0441 C.ar    1  UNL1        0.1457
     11 F          58.2062   85.8733    7.7640 F       1  UNL1       -0.2040
     12 N          59.7823   90.2113    6.2822 N.pl3   1  UNL1       -0.3040
     13 C          61.0502   90.9240    6.0551 C.3     1  UNL1        0.1123
     14 C          61.2021   91.3031    4.5772 C.3     1  UNL1        0.1136
     15 N          59.9823   91.9278    4.0513 N.pl3   1  UNL1       -0.2894
     16 C          58.7629   91.9761    4.8652 C.3     1  UNL1        0.1136
     17 C          58.5609   90.6364    5.5767 C.3     1  UNL1        0.1123
     18 C          59.9501   92.3328    2.6748 C.ar    1  UNL1        0.1371
     19 N          58.7479   92.5698    2.0828 N.ar    1  UNL1       -0.2288
     20 C          58.6424   92.9670    0.7881 C.ar    1  UNL1        0.1042
     21 C          59.7941   93.1597    0.0112 C.ar    1  UNL1        0.0910
     22 C          61.0416   92.8786    0.5881 C.ar    1  UNL1        0.0140
     23 C          61.1308   92.4698    1.9217 C.ar    1  UNL1        0.0616
     24 I          63.0427   91.9812    2.6922 I       1  UNL1       -0.0396
     25 C          59.6882   93.5505   -1.4407 C.3     1  UNL1        0.4200
     26 F          58.7031   92.8130   -2.0747 F       1  UNL1       -0.1658
     27 F          59.3705   94.8922   -1.5622 F       1  UNL1       -0.1658
     28 F          60.8990   93.3156   -2.0650 F       1  UNL1       -0.1658
     29 C          59.2923   85.5273   12.8306 C.3     1  UNL1        0.1535
     30 C          58.5614   84.2600   12.4526 C.2     1  UNL1        0.2443
     31 O          57.3332   84.2971   12.1660 O.2     1  UNL1       -0.2730
     32 N          59.2476   82.9992   12.5090 N.am    1  UNL1       -0.2825
     33 H          60.1129   82.9411   13.0926 H       1  UNL1        0.1549
     34 C          58.7642   81.7925   11.8944 C.ar    1  UNL1        0.0535
     35 C          58.8830   80.5749   12.5786 C.ar    1  UNL1        0.0353
     36 C          58.4359   79.3965   11.9763 C.ar    1  UNL1        0.1002
     37 N          57.9035   79.4290   10.7263 N.ar    1  UNL1       -0.2422
     38 C          57.7927   80.5910   10.0299 C.ar    1  UNL1        0.1002
     39 C          58.2265   81.7926   10.5958 C.ar    1  UNL1        0.0353
     40 C          60.7186   85.2246   13.3360 C.3     1  UNL1        0.0569
     41 C          61.7001   85.1578   12.2016 C.ar    1  UNL1       -0.0017
     42 C          62.2534   86.2370   11.5182 C.ar    1  UNL1        0.0681
     43 N          63.1618   85.8066   10.6132 N.ar    1  UNL1       -0.3523
     44 C          63.1939   84.4673   10.7270 C.ar    1  UNL1        0.0563
     45 C          63.9954   83.5775   10.0131 C.ar    1  UNL1        0.0170
     46 C          63.8809   82.2067   10.3092 C.ar    1  UNL1        0.0015
     47 C          62.9807   81.7617   11.3030 C.ar    1  UNL1        0.0001
     48 C          62.1859   82.6830   12.0091 C.ar    1  UNL1        0.0012
     49 C          62.3185   84.0344   11.6899 C.ar    1  UNL1        0.0131
     50 H          63.7321   86.3994    9.9700 H       1  UNL1        0.1660
@<TRIPOS>BOND
     1     1     2    2
     2     2     3   am
     3     3    29    1
     4    29    40    1
     5    40    41    1
     6    41    42   ar
     7    42    43   ar
     8    43    44   ar
     9    44    45   ar
    10    45    46   ar
    11    46    47   ar
    12    47    48   ar
    13    48    49   ar
    14    29    30    1
    15    30    31    2
    16    30    32   am
    17    32    34    1
    18    34    35   ar
    19    35    36   ar
    20    36    37   ar
    21    37    38   ar
    22    38    39   ar
    23     2     5    1
    24     5     6   ar
    25     6     7   ar
    26     7     8   ar
    27     8    12    1
    28    12    13    1
    29    13    14    1
    30    14    15    1
    31    15    18    1
    32    18    19   ar
    33    19    20   ar
    34    20    21   ar
    35    21    25    1
    36    25    26    1
    37    25    27    1
    38    25    28    1
    39    21    22   ar
    40    22    23   ar
    41    23    24    1
    42    15    16    1
    43    16    17    1
    44     8     9   ar
    45     9    10   ar
    46    10    11    1
    47    49    41   ar
    48    39    34   ar
    49    10     5   ar
    50    49    44   ar
    51    17    12    1
    52    23    18   ar
    53     3     4    1
    54    43    50    1
    55    32    33    1
@<TRIPOS>MOLECULE
*****
 50 55 0 0 0
SMALL
GASTEIGER

@<TRIPOS>ATOM
      1 O          60.4150   85.3002   10.4746 O.2     1  UNL1       -0.2701
      2 C          59.4566   86.1050   10.3194 C.2     1  UNL1        0.2483
      3 N          58.2892   86.0051   11.1577 N.am    1  UNL1       -0.2945
      4 H          57.5279   86.7113   11.0457 H       1  UNL1        0.1501
      5 C          59.5538   87.1549    9.2790 C.ar    1  UNL1        0.0808
      6 C          60.2035   88.3703    9.5512 C.ar    1  UNL1        0.0080
      7 C          60.2951   89.3623    8.5716 C.ar    1  UNL1        0.0148
      8 C          59.7377   89.1633    7.2968 C.ar    1  UNL1        0.0502
      9 C          59.0776   87.9521    7.0287 C.ar    1  UNL1        0.0443
     10 C          58.9838   86.9577    8.0072 C.ar    1  UNL1        0.1457
     11 F          58.3614   85.7915    7.6979 F       1  UNL1       -0.2040
     12 N          59.8290   90.1899    6.2841 N.pl3   1  UNL1       -0.3040
     13 C          61.1025   90.8913    6.0536 C.3     1  UNL1        0.1123
     14 C          61.2506   91.2753    4.5766 C.3     1  UNL1        0.1136
     15 N          60.0343   91.9140    4.0596 N.pl3   1  UNL1       -0.2894
     16 C          58.8195   91.9705    4.8798 C.3     1  UNL1        0.1136
     17 C          58.6081   90.6298    5.5867 C.3     1  UNL1        0.1123
     18 C          59.9990   92.3253    2.6850 C.ar    1  UNL1        0.1371
     19 N          58.7954   92.5620    2.0959 N.ar    1  UNL1       -0.2288
     20 C          58.6870   92.9649    0.8031 C.ar    1  UNL1        0.1042
     21 C          59.8371   93.1639    0.0255 C.ar    1  UNL1        0.0910
     22 C          61.0861   92.8832    0.5992 C.ar    1  UNL1        0.0140
     23 C          61.1783   92.4686    1.9308 C.ar    1  UNL1        0.0616
     24 I          63.0926   91.9811    2.6963 I       1  UNL1       -0.0396
     25 C          59.7282   93.5611   -1.4245 C.3     1  UNL1        0.4200
     26 F          60.9383   93.3827   -2.0724 F       1  UNL1       -0.1658
     27 F          58.7743   92.7931   -2.0697 F       1  UNL1       -0.1658
     28 F          59.3654   94.8925   -1.5059 F       1  UNL1       -0.1658
     29 C          58.1438   85.0477   12.2658 C.3     1  UNL1        0.1535
     30 C          58.6068   83.6639   11.8734 C.2     1  UNL1        0.2443
     31 O          57.8317   82.8886   11.2487 O.2     1  UNL1       -0.2730
     32 N          59.9002   83.2008   12.2933 N.am    1  UNL1       -0.2825
     33 H          60.3534   83.6869   13.1001 H       1  UNL1        0.1549
     34 C          60.5619   82.0513   11.7380 C.ar    1  UNL1        0.0535
     35 C          61.3278   81.2264   12.5731 C.ar    1  UNL1        0.0353
     36 C          61.9915   80.1216   12.0342 C.ar    1  UNL1        0.1002
     37 N          61.9078   79.8582   10.7035 N.ar    1  UNL1       -0.2422
     38 C          61.1890   80.6504    9.8650 C.ar    1  UNL1        0.1002
     39 C          60.5089   81.7648   10.3630 C.ar    1  UNL1        0.0353
     40 C          58.8644   85.5424   13.5376 C.3     1  UNL1        0.0569
     41 C          59.4195   86.9250   13.3509 C.ar    1  UNL1       -0.0017
     42 C          58.7069   88.1197   13.4048 C.ar    1  UNL1        0.0681
     43 N          59.5437   89.1743   13.2747 N.ar    1  UNL1       -0.3523
     44 C          60.7780   88.6561   13.1498 C.ar    1  UNL1        0.0563
     45 C          61.9772   89.3534   13.0094 C.ar    1  UNL1        0.0170
     46 C          63.1653   88.6057   12.9146 C.ar    1  UNL1        0.0015
     47 C          63.1289   87.1943   12.9652 C.ar    1  UNL1        0.0001
     48 C          61.9041   86.5174   13.1097 C.ar    1  UNL1        0.0012
     49 C          60.7431   87.2859   13.1963 C.ar    1  UNL1        0.0131
     50 H          59.2816   90.1850   13.2859 H       1  UNL1        0.1660
@<TRIPOS>BOND
     1     1     2    2
     2     2     3   am
     3     3    29    1
     4    29    40    1
     5    40    41    1
     6    41    42   ar
     7    42    43   ar
     8    43    44   ar
     9    44    45   ar
    10    45    46   ar
    11    46    47   ar
    12    47    48   ar
    13    48    49   ar
    14    29    30    1
    15    30    31    2
    16    30    32   am
    17    32    34    1
    18    34    35   ar
    19    35    36   ar
    20    36    37   ar
    21    37    38   ar
    22    38    39   ar
    23     2     5    1
    24     5     6   ar
    25     6     7   ar
    26     7     8   ar
    27     8    12    1
    28    12    13    1
    29    13    14    1
    30    14    15    1
    31    15    18    1
    32    18    19   ar
    33    19    20   ar
    34    20    21   ar
    35    21    25    1
    36    25    26    1
    37    25    27    1
    38    25    28    1
    39    21    22   ar
    40    22    23   ar
    41    23    24    1
    42    15    16    1
    43    16    17    1
    44     8     9   ar
    45     9    10   ar
    46    10    11    1
    47    49    41   ar
    48    39    34   ar
    49    10     5   ar
    50    49    44   ar
    51    17    12    1
    52    23    18   ar
    53     3     4    1
    54    43    50    1
    55    32    33    1
