@<TRIPOS>MOLECULE
*****
 36 39 0 0 0
SMALL
GASTEIGER

@<TRIPOS>ATOM
      1 N         -28.9107   46.9890   -6.6279 N.am    1  UNL1       -0.2685
      2 C         -28.5821   47.1335   -8.0290 C.2     1  UNL1        0.2672
      3 O         -28.8939   46.2127   -8.8340 O.2     1  UNL1       -0.2682
      4 C         -27.8809   48.3335   -8.5437 C.ar    1  UNL1        0.1347
      5 C         -26.5924   48.6641   -8.0910 C.ar    1  UNL1        0.0238
      6 C         -25.9588   49.8129   -8.5833 C.ar    1  UNL1        0.0031
      7 C         -24.6703   50.1657   -8.1522 C.ar    1  UNL1        0.0001
      8 C         -24.0537   51.3159   -8.6544 C.ar    1  UNL1        0.0000
      9 C         -24.7162   52.1195   -9.5871 C.ar    1  UNL1        0.0000
     10 C         -25.9997   51.7783  -10.0238 C.ar    1  UNL1        0.0015
     11 C         -26.6266   50.6262   -9.5258 C.ar    1  UNL1        0.0192
     12 C         -27.9109   50.2624   -9.9456 C.ar    1  UNL1        0.0989
     13 N         -28.4967   49.1421   -9.4486 N.ar    1  UNL1       -0.2393
     14 C         -30.9242   48.4802   -6.7296 C.3     1  UNL1        0.0265
     15 C         -29.6495   48.0893   -5.9595 C.3     1  UNL1        0.1007
     16 C         -28.7213   49.2512   -5.6229 C.ar    1  UNL1        0.0234
     17 C         -27.6569   49.1324   -4.7031 C.ar    1  UNL1        0.0019
     18 C         -26.8578   50.2366   -4.3940 C.ar    1  UNL1        0.0295
     19 C         -27.1070   51.4729   -4.9907 C.ar    1  UNL1        0.1424
     20 F         -26.3301   52.5418   -4.6872 F       1  UNL1       -0.2041
     21 C         -28.1581   51.6087   -5.8985 C.ar    1  UNL1        0.0590
     22 C         -28.9635   50.5097   -6.2127 C.ar    1  UNL1        0.1399
     23 F         -29.9832   50.6756   -7.0933 F       1  UNL1       -0.2044
     24 C         -28.8847   45.6219   -6.0624 C.3     1  UNL1        0.1212
     25 C         -28.3391   45.5846   -4.6538 C.ar    1  UNL1        0.0033
     26 C         -29.2077   45.2510   -3.6013 C.ar    1  UNL1       -0.0021
     27 C         -28.7451   45.1955   -2.2892 C.ar    1  UNL1       -0.0000
     28 C         -27.4094   45.4690   -2.0057 C.ar    1  UNL1        0.0069
     29 C         -26.5155   45.8031   -3.0336 C.ar    1  UNL1        0.0806
     30 C         -26.9730   45.8387   -4.3734 C.ar    1  UNL1        0.0253
     31 S         -25.8052   46.0972   -5.7251 S.3     1  UNL1       -0.1415
     32 H         -26.0177   47.4855   -5.7221 H       1  UNL1        0.1071
     33 C         -25.1095   46.0837   -2.6750 C.2     1  UNL1        0.3385
     34 O         -24.2754   45.1409   -2.6367 O.2     1  UNL1       -0.2451
     35 O         -24.6967   47.3673   -2.3274 O.3     1  UNL1       -0.4771
     36 H         -25.3583   48.1269   -2.2269 H       1  UNL1        0.2954
@<TRIPOS>BOND
     1    14    15    1
     2    15    16    1
     3    16    17   ar
     4    17    18   ar
     5    18    19   ar
     6    19    20    1
     7    19    21   ar
     8    21    22   ar
     9    22    23    1
    10    15     1    1
    11     1    24    1
    12    24    25    1
    13    25    26   ar
    14    26    27   ar
    15    27    28   ar
    16    28    29   ar
    17    29    33    1
    18    33    34    2
    19    33    35    1
    20    29    30   ar
    21    30    31    1
    22     1     2   am
    23     2     3    2
    24     2     4    1
    25     4     5   ar
    26     5     6   ar
    27     6     7   ar
    28     7     8   ar
    29     8     9   ar
    30     9    10   ar
    31    10    11   ar
    32    11    12   ar
    33    12    13   ar
    34    22    16   ar
    35    30    25   ar
    36    13     4   ar
    37    11     6   ar
    38    35    36    1
    39    31    32    1
@<TRIPOS>MOLECULE
*****
 36 39 0 0 0
SMALL
GASTEIGER

@<TRIPOS>ATOM
      1 N         -29.2946   49.5116   -5.1540 N.am    1  UNL1       -0.2685
      2 C         -30.2778   49.0690   -6.1180 C.2     1  UNL1        0.2672
      3 O         -31.3640   48.5737   -5.7084 O.2     1  UNL1       -0.2682
      4 C         -30.0395   49.1753   -7.5769 C.ar    1  UNL1        0.1347
      5 C         -30.7977   50.0549   -8.3682 C.ar    1  UNL1        0.0238
      6 C         -30.5616   50.1242   -9.7476 C.ar    1  UNL1        0.0031
      7 C         -31.3008   50.9964  -10.5620 C.ar    1  UNL1        0.0001
      8 C         -31.0512   51.0520  -11.9369 C.ar    1  UNL1        0.0000
      9 C         -30.0659   50.2403  -12.5067 C.ar    1  UNL1        0.0000
     10 C         -29.3235   49.3676  -11.7057 C.ar    1  UNL1        0.0015
     11 C         -29.5663   49.3048  -10.3253 C.ar    1  UNL1        0.0192
     12 C         -28.8381   48.4396   -9.5011 C.ar    1  UNL1        0.0989
     13 N         -29.0920   48.3971   -8.1674 N.ar    1  UNL1       -0.2393
     14 C         -29.8703   51.9481   -5.2968 C.3     1  UNL1        0.0265
     15 C         -28.7536   50.8881   -5.2794 C.3     1  UNL1        0.1007
     16 C         -27.7579   50.9860   -6.4300 C.ar    1  UNL1        0.0234
     17 C         -27.9378   51.8670   -7.5184 C.ar    1  UNL1        0.0019
     18 C         -27.0199   51.8921   -8.5720 C.ar    1  UNL1        0.0295
     19 C         -25.9142   51.0413   -8.5605 C.ar    1  UNL1        0.1424
     20 F         -25.0266   51.0680   -9.5851 F       1  UNL1       -0.2041
     21 C         -25.7240   50.1609   -7.4946 C.ar    1  UNL1        0.0590
     22 C         -26.6380   50.1281   -6.4369 C.ar    1  UNL1        0.1399
     23 F         -26.4298   49.2552   -5.4184 F       1  UNL1       -0.2044
     24 C         -29.2048   48.7600   -3.8826 C.3     1  UNL1        0.1212
     25 C         -28.3960   47.4902   -4.0127 C.ar    1  UNL1        0.0033
     26 C         -28.8220   46.5079   -4.9222 C.ar    1  UNL1       -0.0021
     27 C         -28.1017   45.3270   -5.0811 C.ar    1  UNL1       -0.0000
     28 C         -26.9445   45.1075   -4.3382 C.ar    1  UNL1        0.0069
     29 C         -26.4906   46.0688   -3.4232 C.ar    1  UNL1        0.0806
     30 C         -27.2047   47.2826   -3.2730 C.ar    1  UNL1        0.0253
     31 S         -26.5458   48.6008   -2.2311 S.3     1  UNL1       -0.1415
     32 H         -27.2661   48.1559   -1.1104 H       1  UNL1        0.1071
     33 C         -25.2567   45.7830   -2.6617 C.2     1  UNL1        0.3385
     34 O         -24.1591   46.2637   -3.0492 O.2     1  UNL1       -0.2451
     35 O         -25.2744   44.9475   -1.5479 O.3     1  UNL1       -0.4771
     36 H         -26.1101   44.4448   -1.2767 H       1  UNL1        0.2954
@<TRIPOS>BOND
     1    14    15    1
     2    15    16    1
     3    16    17   ar
     4    17    18   ar
     5    18    19   ar
     6    19    20    1
     7    19    21   ar
     8    21    22   ar
     9    22    23    1
    10    15     1    1
    11     1    24    1
    12    24    25    1
    13    25    26   ar
    14    26    27   ar
    15    27    28   ar
    16    28    29   ar
    17    29    33    1
    18    33    34    2
    19    33    35    1
    20    29    30   ar
    21    30    31    1
    22     1     2   am
    23     2     3    2
    24     2     4    1
    25     4     5   ar
    26     5     6   ar
    27     6     7   ar
    28     7     8   ar
    29     8     9   ar
    30     9    10   ar
    31    10    11   ar
    32    11    12   ar
    33    12    13   ar
    34    22    16   ar
    35    30    25   ar
    36    13     4   ar
    37    11     6   ar
    38    35    36    1
    39    31    32    1
@<TRIPOS>MOLECULE
*****
 36 39 0 0 0
SMALL
GASTEIGER

@<TRIPOS>ATOM
      1 N         -29.0930   46.9832   -6.7427 N.am    1  UNL1       -0.2685
      2 C         -28.0441   46.8670   -7.7318 C.2     1  UNL1        0.2672
      3 O         -27.9510   45.8070   -8.4108 O.2     1  UNL1       -0.2682
      4 C         -27.0696   47.9591   -7.9642 C.ar    1  UNL1        0.1347
      5 C         -27.0230   48.6325   -9.1967 C.ar    1  UNL1        0.0238
      6 C         -26.0813   49.6510   -9.3943 C.ar    1  UNL1        0.0031
      7 C         -26.0144   50.3436  -10.6136 C.ar    1  UNL1        0.0001
      8 C         -25.0679   51.3572  -10.7928 C.ar    1  UNL1        0.0000
      9 C         -24.1844   51.6858   -9.7603 C.ar    1  UNL1        0.0000
     10 C         -24.2415   51.0029   -8.5417 C.ar    1  UNL1        0.0015
     11 C         -25.1877   49.9845   -8.3522 C.ar    1  UNL1        0.0192
     12 C         -25.2655   49.2850   -7.1428 C.ar    1  UNL1        0.0989
     13 N         -26.1905   48.3029   -6.9839 N.ar    1  UNL1       -0.2393
     14 C         -30.8020   48.2405   -8.0793 C.3     1  UNL1        0.0265
     15 C         -29.9721   48.1784   -6.7839 C.3     1  UNL1        0.1007
     16 C         -29.1916   49.4477   -6.4603 C.ar    1  UNL1        0.0234
     17 C         -29.0525   50.5100   -7.3796 C.ar    1  UNL1        0.0019
     18 C         -28.2920   51.6366   -7.0545 C.ar    1  UNL1        0.0295
     19 C         -27.6574   51.7217   -5.8149 C.ar    1  UNL1        0.1424
     20 F         -26.9196   52.8159   -5.5039 F       1  UNL1       -0.2041
     21 C         -27.7806   50.6783   -4.8964 C.ar    1  UNL1        0.0590
     22 C         -28.5385   49.5469   -5.2137 C.ar    1  UNL1        0.1399
     23 F         -28.6328   48.5452   -4.3024 F       1  UNL1       -0.2044
     24 C         -29.5035   45.7470   -6.0408 C.3     1  UNL1        0.1212
     25 C         -28.8880   45.6261   -4.6662 C.ar    1  UNL1        0.0033
     26 C         -27.5273   45.2925   -4.5620 C.ar    1  UNL1       -0.0021
     27 C         -26.9171   45.1799   -3.3155 C.ar    1  UNL1       -0.0000
     28 C         -27.6524   45.4003   -2.1537 C.ar    1  UNL1        0.0069
     29 C         -29.0123   45.7369   -2.2226 C.ar    1  UNL1        0.0806
     30 C         -29.6344   45.8764   -3.4873 C.ar    1  UNL1        0.0253
     31 S         -31.3332   46.4748   -3.6025 S.3     1  UNL1       -0.1415
     32 H         -31.8552   45.1709   -3.6024 H       1  UNL1        0.1071
     33 C         -29.7435   45.9595   -0.9578 C.2     1  UNL1        0.3385
     34 O         -29.3948   46.8965   -0.1921 O.2     1  UNL1       -0.2451
     35 O         -30.7832   45.1188   -0.5689 O.3     1  UNL1       -0.4771
     36 H         -31.0136   44.2843   -1.0937 H       1  UNL1        0.2954
@<TRIPOS>BOND
     1    14    15    1
     2    15    16    1
     3    16    17   ar
     4    17    18   ar
     5    18    19   ar
     6    19    20    1
     7    19    21   ar
     8    21    22   ar
     9    22    23    1
    10    15     1    1
    11     1    24    1
    12    24    25    1
    13    25    26   ar
    14    26    27   ar
    15    27    28   ar
    16    28    29   ar
    17    29    33    1
    18    33    34    2
    19    33    35    1
    20    29    30   ar
    21    30    31    1
    22     1     2   am
    23     2     3    2
    24     2     4    1
    25     4     5   ar
    26     5     6   ar
    27     6     7   ar
    28     7     8   ar
    29     8     9   ar
    30     9    10   ar
    31    10    11   ar
    32    11    12   ar
    33    12    13   ar
    34    22    16   ar
    35    30    25   ar
    36    13     4   ar
    37    11     6   ar
    38    35    36    1
    39    31    32    1
@<TRIPOS>MOLECULE
*****
 36 39 0 0 0
SMALL
GASTEIGER

@<TRIPOS>ATOM
      1 N         -30.5305   49.6906  -10.3609 N.am    1  UNL1       -0.2685
      2 C         -29.9446   50.9943  -10.5826 C.2     1  UNL1        0.2672
      3 O         -30.6372   51.8972  -11.1286 O.2     1  UNL1       -0.2682
      4 C         -28.5473   51.2958  -10.1913 C.ar    1  UNL1        0.1347
      5 C         -27.4745   50.9551  -11.0325 C.ar    1  UNL1        0.0238
      6 C         -26.1623   51.2382  -10.6307 C.ar    1  UNL1        0.0031
      7 C         -25.0714   50.9129  -11.4521 C.ar    1  UNL1        0.0001
      8 C         -23.7687   51.2029  -11.0345 C.ar    1  UNL1        0.0000
      9 C         -23.5461   51.8174   -9.7986 C.ar    1  UNL1        0.0000
     10 C         -24.6247   52.1459   -8.9720 C.ar    1  UNL1        0.0015
     11 C         -25.9353   51.8590   -9.3822 C.ar    1  UNL1        0.0192
     12 C         -27.0324   52.1766   -8.5738 C.ar    1  UNL1        0.0989
     13 N         -28.2919   51.8886   -8.9933 N.ar    1  UNL1       -0.2393
     14 C         -31.1508   49.9991   -7.9509 C.3     1  UNL1        0.0265
     15 C         -30.4584   49.1074   -8.9979 C.3     1  UNL1        0.1007
     16 C         -29.0320   48.6972   -8.6490 C.ar    1  UNL1        0.0234
     17 C         -28.2483   47.8791   -9.4915 C.ar    1  UNL1        0.0019
     18 C         -26.9600   47.4938   -9.1104 C.ar    1  UNL1        0.0295
     19 C         -26.4346   47.9125   -7.8876 C.ar    1  UNL1        0.1424
     20 F         -25.1848   47.5356   -7.5212 F       1  UNL1       -0.2041
     21 C         -27.1978   48.7175   -7.0408 C.ar    1  UNL1        0.0590
     22 C         -28.4881   49.1067   -7.4134 C.ar    1  UNL1        0.1399
     23 F         -29.2085   49.8833   -6.5645 F       1  UNL1       -0.2044
     24 C         -31.5190   49.2135  -11.3533 C.3     1  UNL1        0.1212
     25 C         -30.9441   48.1854  -12.2998 C.ar    1  UNL1        0.0033
     26 C         -30.5539   46.9374  -11.7861 C.ar    1  UNL1       -0.0021
     27 C         -30.0283   45.9574  -12.6239 C.ar    1  UNL1       -0.0000
     28 C         -29.8855   46.2046  -13.9869 C.ar    1  UNL1        0.0069
     29 C         -30.2673   47.4392  -14.5322 C.ar    1  UNL1        0.0806
     30 C         -30.8246   48.4326  -13.6904 C.ar    1  UNL1        0.0253
     31 S         -31.4792   49.9588  -14.3972 S.3     1  UNL1       -0.1415
     32 H         -30.2608   50.6342  -14.2180 H       1  UNL1        0.1071
     33 C         -30.0934   47.6468  -15.9850 C.2     1  UNL1        0.3385
     34 O         -31.0220   47.3327  -16.7756 O.2     1  UNL1       -0.2451
     35 O         -28.8986   48.1376  -16.5050 O.3     1  UNL1       -0.4771
     36 H         -28.0874   48.2862  -15.9179 H       1  UNL1        0.2954
@<TRIPOS>BOND
     1    14    15    1
     2    15    16    1
     3    16    17   ar
     4    17    18   ar
     5    18    19   ar
     6    19    20    1
     7    19    21   ar
     8    21    22   ar
     9    22    23    1
    10    15     1    1
    11     1    24    1
    12    24    25    1
    13    25    26   ar
    14    26    27   ar
    15    27    28   ar
    16    28    29   ar
    17    29    33    1
    18    33    34    2
    19    33    35    1
    20    29    30   ar
    21    30    31    1
    22     1     2   am
    23     2     3    2
    24     2     4    1
    25     4     5   ar
    26     5     6   ar
    27     6     7   ar
    28     7     8   ar
    29     8     9   ar
    30     9    10   ar
    31    10    11   ar
    32    11    12   ar
    33    12    13   ar
    34    22    16   ar
    35    30    25   ar
    36    13     4   ar
    37    11     6   ar
    38    35    36    1
    39    31    32    1
@<TRIPOS>MOLECULE
*****
 36 39 0 0 0
SMALL
GASTEIGER

@<TRIPOS>ATOM
      1 N         -29.1957   49.4192   -8.8956 N.am    1  UNL1       -0.2685
      2 C         -29.5015   49.5634   -7.4893 C.2     1  UNL1        0.2672
      3 O         -30.6499   49.2467   -7.0720 O.2     1  UNL1       -0.2682
      4 C         -28.5022   50.0812   -6.5251 C.ar    1  UNL1        0.1347
      5 C         -28.0724   49.2959   -5.4420 C.ar    1  UNL1        0.0238
      6 C         -27.1378   49.8162   -4.5369 C.ar    1  UNL1        0.0031
      7 C         -26.6874   49.0531   -3.4481 C.ar    1  UNL1        0.0001
      8 C         -25.7543   49.5891   -2.5549 C.ar    1  UNL1        0.0000
      9 C         -25.2661   50.8858   -2.7411 C.ar    1  UNL1        0.0000
     10 C         -25.7075   51.6552   -3.8217 C.ar    1  UNL1        0.0015
     11 C         -26.6433   51.1263   -4.7233 C.ar    1  UNL1        0.0192
     12 C         -27.1021   51.8754   -5.8125 C.ar    1  UNL1        0.0989
     13 N         -28.0085   51.3409   -6.6716 N.ar    1  UNL1       -0.2393
     14 C         -27.8902   47.3045   -8.5613 C.3     1  UNL1        0.0265
     15 C         -27.9765   48.6643   -9.2785 C.3     1  UNL1        0.1007
     16 C         -26.7297   49.5336   -9.1580 C.ar    1  UNL1        0.0234
     17 C         -25.7486   49.3227   -8.1650 C.ar    1  UNL1        0.0019
     18 C         -24.6427   50.1715   -8.0665 C.ar    1  UNL1        0.0295
     19 C         -24.4982   51.2420   -8.9495 C.ar    1  UNL1        0.1424
     20 F         -23.4244   52.0638   -8.8498 F       1  UNL1       -0.2041
     21 C         -25.4613   51.4676   -9.9338 C.ar    1  UNL1        0.0590
     22 C         -26.5716   50.6242  -10.0389 C.ar    1  UNL1        0.1399
     23 F         -27.4953   50.8745  -11.0017 F       1  UNL1       -0.2044
     24 C         -30.2990   49.6419   -9.8561 C.3     1  UNL1        0.1212
     25 C         -30.5872   48.4251  -10.7043 C.ar    1  UNL1        0.0033
     26 C         -31.0469   47.2562  -10.0752 C.ar    1  UNL1       -0.0021
     27 C         -31.3338   46.1148  -10.8193 C.ar    1  UNL1       -0.0000
     28 C         -31.1695   46.1212  -12.2021 C.ar    1  UNL1        0.0069
     29 C         -30.7143   47.2724  -12.8616 C.ar    1  UNL1        0.0806
     30 C         -30.4428   48.4445  -12.1144 C.ar    1  UNL1        0.0253
     31 S         -30.0223   49.9829  -12.9593 S.3     1  UNL1       -0.1415
     32 H         -28.6445   49.7265  -12.8667 H       1  UNL1        0.1071
     33 C         -30.5583   47.2225  -14.3303 C.2     1  UNL1        0.3385
     34 O         -31.4777   47.6612  -15.0707 O.2     1  UNL1       -0.2451
     35 O         -29.4318   46.6511  -14.9164 O.3     1  UNL1       -0.4771
     36 H         -28.7288   46.1785  -14.3620 H       1  UNL1        0.2954
@<TRIPOS>BOND
     1    14    15    1
     2    15    16    1
     3    16    17   ar
     4    17    18   ar
     5    18    19   ar
     6    19    20    1
     7    19    21   ar
     8    21    22   ar
     9    22    23    1
    10    15     1    1
    11     1    24    1
    12    24    25    1
    13    25    26   ar
    14    26    27   ar
    15    27    28   ar
    16    28    29   ar
    17    29    33    1
    18    33    34    2
    19    33    35    1
    20    29    30   ar
    21    30    31    1
    22     1     2   am
    23     2     3    2
    24     2     4    1
    25     4     5   ar
    26     5     6   ar
    27     6     7   ar
    28     7     8   ar
    29     8     9   ar
    30     9    10   ar
    31    10    11   ar
    32    11    12   ar
    33    12    13   ar
    34    22    16   ar
    35    30    25   ar
    36    13     4   ar
    37    11     6   ar
    38    35    36    1
    39    31    32    1
@<TRIPOS>MOLECULE
*****
 36 39 0 0 0
SMALL
GASTEIGER

@<TRIPOS>ATOM
      1 N         -29.3009   46.7411   -6.7794 N.am    1  UNL1       -0.2685
      2 C         -28.5046   46.6255   -7.9812 C.2     1  UNL1        0.2672
      3 O         -28.4855   45.5286   -8.6056 O.2     1  UNL1       -0.2682
      4 C         -27.7031   47.7611   -8.4955 C.ar    1  UNL1        0.1347
      5 C         -26.6022   48.2512   -7.7728 C.ar    1  UNL1        0.0238
      6 C         -25.8712   49.3360   -8.2751 C.ar    1  UNL1        0.0031
      7 C         -24.7646   49.8441   -7.5768 C.ar    1  UNL1        0.0001
      8 C         -24.0469   50.9274   -8.0936 C.ar    1  UNL1        0.0000
      9 C         -24.4273   51.5094   -9.3064 C.ar    1  UNL1        0.0000
     10 C         -25.5278   51.0120  -10.0108 C.ar    1  UNL1        0.0015
     11 C         -26.2540   49.9254   -9.5006 C.ar    1  UNL1        0.0192
     12 C         -27.3598   49.4088  -10.1850 C.ar    1  UNL1        0.0989
     13 N         -28.0467   48.3560   -9.6702 N.ar    1  UNL1       -0.2393
     14 C         -31.3552   47.7980   -7.7545 C.3     1  UNL1        0.0265
     15 C         -30.2601   47.8690   -6.6745 C.3     1  UNL1        0.1007
     16 C         -29.5314   49.2054   -6.5864 C.ar    1  UNL1        0.0234
     17 C         -29.6280   50.1920   -7.5916 C.ar    1  UNL1        0.0019
     18 C         -28.9082   51.3855   -7.4880 C.ar    1  UNL1        0.0295
     19 C         -28.0811   51.6135   -6.3878 C.ar    1  UNL1        0.1424
     20 F         -27.3836   52.7722   -6.2917 F       1  UNL1       -0.2041
     21 C         -27.9704   50.6467   -5.3875 C.ar    1  UNL1        0.0590
     22 C         -28.6859   49.4492   -5.4836 C.ar    1  UNL1        0.1399
     23 F         -28.5510   48.5250   -4.4985 F       1  UNL1       -0.2044
     24 C         -29.4349   45.5330   -5.9355 C.3     1  UNL1        0.1212
     25 C         -28.7317   45.6710   -4.6052 C.ar    1  UNL1        0.0033
     26 C         -27.3299   45.5852   -4.5697 C.ar    1  UNL1       -0.0021
     27 C         -26.6406   45.7162   -3.3671 C.ar    1  UNL1       -0.0000
     28 C         -27.3369   45.9372   -2.1816 C.ar    1  UNL1        0.0069
     29 C         -28.7365   46.0301   -2.1825 C.ar    1  UNL1        0.0806
     30 C         -29.4432   45.9214   -3.4050 C.ar    1  UNL1        0.0253
     31 S         -31.2244   46.2084   -3.4527 S.3     1  UNL1       -0.1415
     32 H         -31.5088   44.8434   -3.2837 H       1  UNL1        0.1071
     33 C         -29.4234   46.2654   -0.8953 C.2     1  UNL1        0.3385
     34 O         -30.1773   45.3762   -0.4188 O.2     1  UNL1       -0.2451
     35 O         -29.2937   47.4762   -0.2200 O.3     1  UNL1       -0.4771
     36 H         -28.7977   48.2590   -0.6275 H       1  UNL1        0.2954
@<TRIPOS>BOND
     1    14    15    1
     2    15    16    1
     3    16    17   ar
     4    17    18   ar
     5    18    19   ar
     6    19    20    1
     7    19    21   ar
     8    21    22   ar
     9    22    23    1
    10    15     1    1
    11     1    24    1
    12    24    25    1
    13    25    26   ar
    14    26    27   ar
    15    27    28   ar
    16    28    29   ar
    17    29    33    1
    18    33    34    2
    19    33    35    1
    20    29    30   ar
    21    30    31    1
    22     1     2   am
    23     2     3    2
    24     2     4    1
    25     4     5   ar
    26     5     6   ar
    27     6     7   ar
    28     7     8   ar
    29     8     9   ar
    30     9    10   ar
    31    10    11   ar
    32    11    12   ar
    33    12    13   ar
    34    22    16   ar
    35    30    25   ar
    36    13     4   ar
    37    11     6   ar
    38    35    36    1
    39    31    32    1
@<TRIPOS>MOLECULE
*****
 36 39 0 0 0
SMALL
GASTEIGER

@<TRIPOS>ATOM
      1 N         -30.0897   47.6067   -9.4779 N.am    1  UNL1       -0.2685
      2 C         -30.4054   47.6374   -8.0667 C.2     1  UNL1        0.2672
      3 O         -31.5127   47.1777   -7.6721 O.2     1  UNL1       -0.2682
      4 C         -29.4639   48.2022   -7.0712 C.ar    1  UNL1        0.1347
      5 C         -29.1323   49.5677   -7.0875 C.ar    1  UNL1        0.0238
      6 C         -28.2276   50.0721   -6.1439 C.ar    1  UNL1        0.0031
      7 C         -27.8808   51.4323   -6.1338 C.ar    1  UNL1        0.0001
      8 C         -26.9760   51.9178   -5.1844 C.ar    1  UNL1        0.0000
      9 C         -26.4128   51.0525   -4.2419 C.ar    1  UNL1        0.0000
     10 C         -26.7505   49.6958   -4.2423 C.ar    1  UNL1        0.0015
     11 C         -27.6574   49.1992   -5.1906 C.ar    1  UNL1        0.0192
     12 C         -28.0117   47.8457   -5.2134 C.ar    1  UNL1        0.0989
     13 N         -28.8921   47.3891   -6.1418 N.ar    1  UNL1       -0.2393
     14 C         -28.7218   45.5069   -9.5652 C.3     1  UNL1        0.0265
     15 C         -28.7985   47.0080   -9.8991 C.3     1  UNL1        0.1007
     16 C         -27.6190   47.8369   -9.4025 C.ar    1  UNL1        0.0234
     17 C         -26.6488   47.3234   -8.5147 C.ar    1  UNL1        0.0019
     18 C         -25.6078   48.1337   -8.0530 C.ar    1  UNL1        0.0295
     19 C         -25.5185   49.4641   -8.4636 C.ar    1  UNL1        0.1424
     20 F         -24.5076   50.2471   -8.0124 F       1  UNL1       -0.2041
     21 C         -26.4719   49.9889   -9.3371 C.ar    1  UNL1        0.0590
     22 C         -27.5174   49.1859   -9.8030 C.ar    1  UNL1        0.1399
     23 F         -28.4337   49.7276  -10.6454 F       1  UNL1       -0.2044
     24 C         -31.2129   47.7659  -10.4279 C.3     1  UNL1        0.1212
     25 C         -30.7875   47.5903  -11.8672 C.ar    1  UNL1        0.0033
     26 C         -30.5594   46.2912  -12.3508 C.ar    1  UNL1       -0.0021
     27 C         -30.1754   46.0827  -13.6728 C.ar    1  UNL1       -0.0000
     28 C         -30.0152   47.1651  -14.5342 C.ar    1  UNL1        0.0069
     29 C         -30.2371   48.4748  -14.0838 C.ar    1  UNL1        0.0806
     30 C         -30.6506   48.6933  -12.7470 C.ar    1  UNL1        0.0253
     31 S         -31.1062   50.3508  -12.1970 S.3     1  UNL1       -0.1415
     32 H         -29.8080   50.6178  -11.7322 H       1  UNL1        0.1071
     33 C         -30.0521   49.5852  -15.0412 C.2     1  UNL1        0.3385
     34 O         -28.8901   49.9881  -15.3124 O.2     1  UNL1       -0.2451
     35 O         -31.1439   50.2323  -15.6140 O.3     1  UNL1       -0.4771
     36 H         -32.0925   50.0217  -15.3303 H       1  UNL1        0.2954
@<TRIPOS>BOND
     1    14    15    1
     2    15    16    1
     3    16    17   ar
     4    17    18   ar
     5    18    19   ar
     6    19    20    1
     7    19    21   ar
     8    21    22   ar
     9    22    23    1
    10    15     1    1
    11     1    24    1
    12    24    25    1
    13    25    26   ar
    14    26    27   ar
    15    27    28   ar
    16    28    29   ar
    17    29    33    1
    18    33    34    2
    19    33    35    1
    20    29    30   ar
    21    30    31    1
    22     1     2   am
    23     2     3    2
    24     2     4    1
    25     4     5   ar
    26     5     6   ar
    27     6     7   ar
    28     7     8   ar
    29     8     9   ar
    30     9    10   ar
    31    10    11   ar
    32    11    12   ar
    33    12    13   ar
    34    22    16   ar
    35    30    25   ar
    36    13     4   ar
    37    11     6   ar
    38    35    36    1
    39    31    32    1
@<TRIPOS>MOLECULE
*****
 36 39 0 0 0
SMALL
GASTEIGER

@<TRIPOS>ATOM
      1 N         -29.8108   48.4444   -8.7128 N.am    1  UNL1       -0.2685
      2 C         -30.0339   48.8279   -7.3361 C.2     1  UNL1        0.2672
      3 O         -31.1209   48.5138   -6.7767 O.2     1  UNL1       -0.2682
      4 C         -29.0207   49.5875   -6.5663 C.ar    1  UNL1        0.1347
      5 C         -28.3842   49.0144   -5.4522 C.ar    1  UNL1        0.0238
      6 C         -27.4411   49.7608   -4.7333 C.ar    1  UNL1        0.0031
      7 C         -26.7866   49.2128   -3.6189 C.ar    1  UNL1        0.0001
      8 C         -25.8483   49.9727   -2.9135 C.ar    1  UNL1        0.0000
      9 C         -25.5575   51.2803   -3.3137 C.ar    1  UNL1        0.0000
     10 C         -26.2030   51.8367   -4.4220 C.ar    1  UNL1        0.0015
     11 C         -27.1458   51.0822   -5.1362 C.ar    1  UNL1        0.0192
     12 C         -27.8067   51.6154   -6.2484 C.ar    1  UNL1        0.0989
     13 N         -28.7156   50.8647   -6.9234 N.ar    1  UNL1       -0.2393
     14 C         -28.4882   46.3425   -8.3655 C.3     1  UNL1        0.0265
     15 C         -28.5597   47.7201   -9.0494 C.3     1  UNL1        0.1007
     16 C         -27.3366   48.6057   -8.8382 C.ar    1  UNL1        0.0234
     17 C         -26.3589   48.3307   -7.8576 C.ar    1  UNL1        0.0019
     18 C         -25.2759   49.1943   -7.6716 C.ar    1  UNL1        0.0295
     19 C         -25.1513   50.3430   -8.4537 C.ar    1  UNL1        0.1424
     20 F         -24.0998   51.1788   -8.2693 F       1  UNL1       -0.2041
     21 C         -26.1115   50.6322   -9.4242 C.ar    1  UNL1        0.0590
     22 C         -27.1990   49.7745   -9.6162 C.ar    1  UNL1        0.1399
     23 F         -28.1205   50.0873  -10.5625 F       1  UNL1       -0.2044
     24 C         -30.9903   48.4035   -9.6053 C.3     1  UNL1        0.1212
     25 C         -30.8963   49.3965  -10.7403 C.ar    1  UNL1        0.0033
     26 C         -31.0151   50.7662  -10.4515 C.ar    1  UNL1       -0.0021
     27 C         -30.9252   51.7163  -11.4653 C.ar    1  UNL1       -0.0000
     28 C         -30.7131   51.3167  -12.7823 C.ar    1  UNL1        0.0069
     29 C         -30.5880   49.9573  -13.1045 C.ar    1  UNL1        0.0806
     30 C         -30.6548   48.9863  -12.0756 C.ar    1  UNL1        0.0253
     31 S         -30.3260   47.2501  -12.4428 S.3     1  UNL1       -0.1415
     32 H         -31.6874   46.9751  -12.6520 H       1  UNL1        0.1071
     33 C         -30.3641   49.5905  -14.5185 C.2     1  UNL1        0.3385
     34 O         -29.2829   49.9070  -15.0813 O.2     1  UNL1       -0.2451
     35 O         -31.3492   48.9435  -15.2599 O.3     1  UNL1       -0.4771
     36 H         -32.2746   48.7812  -14.8827 H       1  UNL1        0.2954
@<TRIPOS>BOND
     1    14    15    1
     2    15    16    1
     3    16    17   ar
     4    17    18   ar
     5    18    19   ar
     6    19    20    1
     7    19    21   ar
     8    21    22   ar
     9    22    23    1
    10    15     1    1
    11     1    24    1
    12    24    25    1
    13    25    26   ar
    14    26    27   ar
    15    27    28   ar
    16    28    29   ar
    17    29    33    1
    18    33    34    2
    19    33    35    1
    20    29    30   ar
    21    30    31    1
    22     1     2   am
    23     2     3    2
    24     2     4    1
    25     4     5   ar
    26     5     6   ar
    27     6     7   ar
    28     7     8   ar
    29     8     9   ar
    30     9    10   ar
    31    10    11   ar
    32    11    12   ar
    33    12    13   ar
    34    22    16   ar
    35    30    25   ar
    36    13     4   ar
    37    11     6   ar
    38    35    36    1
    39    31    32    1
@<TRIPOS>MOLECULE
*****
 36 39 0 0 0
SMALL
GASTEIGER

@<TRIPOS>ATOM
      1 N         -28.8563   46.9435   -7.4420 N.am    1  UNL1       -0.2685
      2 C         -27.7396   46.9207   -8.3609 C.2     1  UNL1        0.2672
      3 O         -27.5706   45.9127   -9.1015 O.2     1  UNL1       -0.2682
      4 C         -26.7827   48.0488   -8.4504 C.ar    1  UNL1        0.1347
      5 C         -26.6154   48.7575   -9.6522 C.ar    1  UNL1        0.0238
      6 C         -25.6927   49.8102   -9.7130 C.ar    1  UNL1        0.0031
      7 C         -25.5073   50.5382  -10.8988 C.ar    1  UNL1        0.0001
      8 C         -24.5818   51.5857  -10.9407 C.ar    1  UNL1        0.0000
      9 C         -23.8371   51.9128   -9.8037 C.ar    1  UNL1        0.0000
     10 C         -24.0129   51.1947   -8.6171 C.ar    1  UNL1        0.0015
     11 C         -24.9392   50.1423   -8.5650 C.ar    1  UNL1        0.0192
     12 C         -25.1339   49.4072   -7.3904 C.ar    1  UNL1        0.0989
     13 N         -26.0368   48.3926   -7.3653 N.ar    1  UNL1       -0.2393
     14 C         -30.4848   48.2652   -8.8164 C.3     1  UNL1        0.0265
     15 C         -29.7640   48.1177   -7.4639 C.3     1  UNL1        0.1007
     16 C         -29.0510   49.3742   -6.9763 C.ar    1  UNL1        0.0234
     17 C         -28.5678   49.5108   -5.6568 C.ar    1  UNL1        0.0019
     18 C         -27.9578   50.6980   -5.2423 C.ar    1  UNL1        0.0295
     19 C         -27.8228   51.7654   -6.1306 C.ar    1  UNL1        0.1424
     20 F         -27.2313   52.9158   -5.7242 F       1  UNL1       -0.2041
     21 C         -28.2992   51.6487   -7.4371 C.ar    1  UNL1        0.0590
     22 C         -28.9120   50.4651   -7.8599 C.ar    1  UNL1        0.1399
     23 F         -29.3724   50.3853   -9.1344 F       1  UNL1       -0.2044
     24 C         -29.2787   45.6524   -6.8554 C.3     1  UNL1        0.1212
     25 C         -29.7464   45.7879   -5.4250 C.ar    1  UNL1        0.0033
     26 C         -31.1101   45.6075   -5.1398 C.ar    1  UNL1       -0.0021
     27 C         -31.5829   45.7138   -3.8345 C.ar    1  UNL1       -0.0000
     28 C         -30.7040   45.9991   -2.7927 C.ar    1  UNL1        0.0069
     29 C         -29.3362   46.1829   -3.0429 C.ar    1  UNL1        0.0806
     30 C         -28.8439   46.0531   -4.3645 C.ar    1  UNL1        0.0253
     31 S         -27.0683   46.1155   -4.6823 S.3     1  UNL1       -0.1415
     32 H         -27.1026   47.4960   -4.9386 H       1  UNL1        0.1071
     33 C         -28.4495   46.4837   -1.8995 C.2     1  UNL1        0.3385
     34 O         -28.0553   45.5491   -1.1530 O.2     1  UNL1       -0.2451
     35 O         -28.0800   47.7921   -1.5987 O.3     1  UNL1       -0.4771
     36 H         -28.4723   48.5808   -2.0976 H       1  UNL1        0.2954
@<TRIPOS>BOND
     1    14    15    1
     2    15    16    1
     3    16    17   ar
     4    17    18   ar
     5    18    19   ar
     6    19    20    1
     7    19    21   ar
     8    21    22   ar
     9    22    23    1
    10    15     1    1
    11     1    24    1
    12    24    25    1
    13    25    26   ar
    14    26    27   ar
    15    27    28   ar
    16    28    29   ar
    17    29    33    1
    18    33    34    2
    19    33    35    1
    20    29    30   ar
    21    30    31    1
    22     1     2   am
    23     2     3    2
    24     2     4    1
    25     4     5   ar
    26     5     6   ar
    27     6     7   ar
    28     7     8   ar
    29     8     9   ar
    30     9    10   ar
    31    10    11   ar
    32    11    12   ar
    33    12    13   ar
    34    22    16   ar
    35    30    25   ar
    36    13     4   ar
    37    11     6   ar
    38    35    36    1
    39    31    32    1
