@<TRIPOS>MOLECULE
*****
 33 36 0 0 0
SMALL
GASTEIGER

@<TRIPOS>ATOM
      1 C         -11.6528  -12.4601   31.3176 C.ar    1  UNL1        0.0179
      2 C         -12.0838  -11.1260   31.2927 C.ar    1  UNL1        0.0028
      3 C         -11.4079  -10.1823   30.5143 C.ar    1  UNL1        0.0148
      4 C         -10.2774  -10.5524   29.7714 C.ar    1  UNL1        0.0516
      5 C          -9.8445  -11.8899   29.8031 C.ar    1  UNL1        0.0148
      6 C         -10.5204  -12.8333   30.5815 C.ar    1  UNL1        0.0028
      7 C          -9.8465  -12.3422   34.0238 C.3     1  UNL1        0.0327
      8 C         -10.8677  -13.4095   34.2608 C.ar    1  UNL1       -0.0005
      9 C         -10.9782  -14.1809   35.4155 C.ar    1  UNL1        0.0693
     10 N         -12.0304  -15.0242   35.3240 N.ar    1  UNL1       -0.3376
     11 C         -12.5755  -14.7934   34.1197 C.ar    1  UNL1        0.1435
     12 N         -13.6906  -15.3860   33.6300 N.ar    1  UNL1       -0.2068
     13 C         -14.1416  -15.0081   32.3993 C.ar    1  UNL1        0.2002
     14 N         -13.4746  -14.0546   31.6787 N.ar    1  UNL1       -0.2239
     15 C         -12.3446  -13.4522   32.1547 C.ar    1  UNL1        0.0856
     16 C         -11.8943  -13.8318   33.4261 C.ar    1  UNL1        0.0491
     17 H         -12.3604  -15.6993   36.0488 H       1  UNL1        0.1674
     18 N          -9.5965   -9.5629   28.9815 N.am    1  UNL1       -0.2679
     19 C          -8.4167   -8.8724   29.4149 C.2     1  UNL1        0.3115
     20 O          -7.4099   -8.8638   28.6561 O.2     1  UNL1       -0.2519
     21 N          -8.3767   -8.1683   30.6774 N.am    1  UNL1       -0.2396
     22 H          -9.9022   -9.4211   27.9923 H       1  UNL1        0.1564
     23 C          -7.1142   -7.7033   31.1890 C.ar    1  UNL1        0.0659
     24 C          -6.4185   -6.6860   30.5145 C.ar    1  UNL1        0.0158
     25 C          -5.2012   -6.2133   31.0112 C.ar    1  UNL1        0.0013
     26 C          -4.6702   -6.7489   32.1865 C.ar    1  UNL1        0.0009
     27 C          -5.3564   -7.7571   32.8683 C.ar    1  UNL1        0.0127
     28 C          -6.5773   -8.2363   32.3779 C.ar    1  UNL1        0.0714
     29 CL         -7.4025   -9.5122   33.2622 Cl      1  UNL1       -0.0809
     30 C          -9.6056   -7.6487   31.2977 C.3     1  UNL1        0.1314
     31 C         -10.1874   -6.4947   30.4810 C.3     1  UNL1        0.1590
     32 O         -11.1285   -6.9786   29.5640 O.3     1  UNL1       -0.3802
     33 H         -11.4538   -6.1876   29.0607 H       1  UNL1        0.2105
@<TRIPOS>BOND
     1     7     8    1
     2     8     9   ar
     3     9    10   ar
     4    10    11   ar
     5    11    12   ar
     6    12    13   ar
     7    13    14   ar
     8    14    15   ar
     9    15     1    1
    10     1     2   ar
    11     2     3   ar
    12     3     4   ar
    13     4    18    1
    14    18    19   am
    15    19    20    2
    16    19    21   am
    17    21    30    1
    18    30    31    1
    19    31    32    1
    20    21    23    1
    21    23    24   ar
    22    24    25   ar
    23    25    26   ar
    24    26    27   ar
    25    27    28   ar
    26    28    29    1
    27     4     5   ar
    28     5     6   ar
    29    15    16   ar
    30    16     8   ar
    31    16    11   ar
    32     6     1   ar
    33    28    23   ar
    34    10    17    1
    35    18    22    1
    36    32    33    1
@<TRIPOS>MOLECULE
*****
 33 36 0 0 0
SMALL
GASTEIGER

@<TRIPOS>ATOM
      1 C         -11.5459  -12.3716   31.3186 C.ar    1  UNL1        0.0179
      2 C         -11.9670  -11.0342   31.3031 C.ar    1  UNL1        0.0028
      3 C         -11.2533  -10.0799   30.5728 C.ar    1  UNL1        0.0148
      4 C         -10.0953  -10.4431   29.8700 C.ar    1  UNL1        0.0516
      5 C          -9.6725  -11.7841   29.8924 C.ar    1  UNL1        0.0148
      6 C         -10.3863  -12.7381   30.6228 C.ar    1  UNL1        0.0028
      7 C          -9.8159  -12.3659   34.0768 C.3     1  UNL1        0.0327
      8 C         -10.8615  -13.4212   34.2529 C.ar    1  UNL1       -0.0005
      9 C         -11.0182  -14.2242   35.3805 C.ar    1  UNL1        0.0693
     10 N         -12.0817  -15.0453   35.2343 N.ar    1  UNL1       -0.3376
     11 C         -12.5881  -14.7693   34.0227 C.ar    1  UNL1        0.1435
     12 N         -13.6988  -15.3272   33.4844 N.ar    1  UNL1       -0.2068
     13 C         -14.1079  -14.9051   32.2534 C.ar    1  UNL1        0.2002
     14 N         -13.4044  -13.9430   31.5807 N.ar    1  UNL1       -0.2239
     15 C         -12.2782  -13.3753   32.1060 C.ar    1  UNL1        0.0856
     16 C         -11.8710  -13.8002   33.3776 C.ar    1  UNL1        0.0491
     17 H         -12.4438  -15.7354   35.9290 H       1  UNL1        0.1674
     18 N          -9.3758   -9.4429   29.1294 N.am    1  UNL1       -0.2679
     19 C          -8.1853   -8.8017   29.6068 C.2     1  UNL1        0.3115
     20 O          -7.1665   -8.7913   28.8642 O.2     1  UNL1       -0.2519
     21 N          -8.1470   -8.1478   30.8961 N.am    1  UNL1       -0.2396
     22 H          -9.6617   -9.2551   28.1420 H       1  UNL1        0.1564
     23 C          -6.8810   -7.7371   31.4444 C.ar    1  UNL1        0.0659
     24 C          -6.2816   -8.4955   32.4639 C.ar    1  UNL1        0.0158
     25 C          -5.0444   -8.1175   32.9914 C.ar    1  UNL1        0.0013
     26 C          -4.3935   -6.9824   32.5036 C.ar    1  UNL1        0.0009
     27 C          -4.9780   -6.2240   31.4860 C.ar    1  UNL1        0.0127
     28 C          -6.2174   -6.5960   30.9511 C.ar    1  UNL1        0.0714
     29 CL         -6.9210   -5.6080   29.6785 Cl      1  UNL1       -0.0809
     30 C          -9.3715   -7.6193   31.5175 C.3     1  UNL1        0.1314
     31 C          -9.9287   -6.4414   30.7180 C.3     1  UNL1        0.1590
     32 O         -10.8622   -6.8947   29.7778 O.3     1  UNL1       -0.3802
     33 H         -11.1715   -6.0894   29.2872 H       1  UNL1        0.2105
@<TRIPOS>BOND
     1     7     8    1
     2     8     9   ar
     3     9    10   ar
     4    10    11   ar
     5    11    12   ar
     6    12    13   ar
     7    13    14   ar
     8    14    15   ar
     9    15     1    1
    10     1     2   ar
    11     2     3   ar
    12     3     4   ar
    13     4    18    1
    14    18    19   am
    15    19    20    2
    16    19    21   am
    17    21    30    1
    18    30    31    1
    19    31    32    1
    20    21    23    1
    21    23    24   ar
    22    24    25   ar
    23    25    26   ar
    24    26    27   ar
    25    27    28   ar
    26    28    29    1
    27     4     5   ar
    28     5     6   ar
    29    15    16   ar
    30    16     8   ar
    31    16    11   ar
    32     6     1   ar
    33    28    23   ar
    34    10    17    1
    35    18    22    1
    36    32    33    1
@<TRIPOS>MOLECULE
*****
 33 36 0 0 0
SMALL
GASTEIGER

@<TRIPOS>ATOM
      1 C         -10.5252  -12.3917   33.8468 C.ar    1  UNL1        0.0179
      2 C         -10.9548  -11.1904   33.2650 C.ar    1  UNL1        0.0028
      3 C         -10.0460  -10.1527   33.0400 C.ar    1  UNL1        0.0148
      4 C          -8.7022  -10.2908   33.4169 C.ar    1  UNL1        0.0516
      5 C          -8.2759  -11.4948   34.0054 C.ar    1  UNL1        0.0148
      6 C          -9.1849  -12.5322   34.2303 C.ar    1  UNL1        0.0028
      7 C         -10.9783  -13.5481   30.8372 C.3     1  UNL1        0.0327
      8 C         -11.8939  -14.3363   31.7195 C.ar    1  UNL1       -0.0005
      9 C         -12.7579  -15.3431   31.2946 C.ar    1  UNL1        0.0693
     10 N         -13.4135  -15.8812   32.3469 N.ar    1  UNL1       -0.3376
     11 C         -12.9737  -15.2158   33.4260 C.ar    1  UNL1        0.1435
     12 N         -13.3309  -15.4653   34.7085 N.ar    1  UNL1       -0.2068
     13 C         -12.7583  -14.7234   35.6997 C.ar    1  UNL1        0.2002
     14 N         -11.8480  -13.7470   35.3978 N.ar    1  UNL1       -0.2239
     15 C         -11.4821  -13.4776   34.1094 C.ar    1  UNL1        0.0856
     16 C         -12.0605  -14.2530   33.0958 C.ar    1  UNL1        0.0491
     17 H         -14.1031  -16.6648   32.3246 H       1  UNL1        0.1674
     18 N          -7.7872   -9.2080   33.1789 N.am    1  UNL1       -0.2679
     19 C          -8.1508   -7.9898   32.5154 C.2     1  UNL1        0.3115
     20 O          -7.8877   -6.8937   33.0799 O.2     1  UNL1       -0.2519
     21 N          -8.7768   -7.9998   31.2118 N.am    1  UNL1       -0.2396
     22 H          -6.8384   -9.2551   33.6145 H       1  UNL1        0.1564
     23 C          -9.3485   -6.7856   30.6915 C.ar    1  UNL1        0.0659
     24 C         -10.7266   -6.5478   30.8266 C.ar    1  UNL1        0.0158
     25 C         -11.2903   -5.3648   30.3422 C.ar    1  UNL1        0.0013
     26 C         -10.4835   -4.4081   29.7228 C.ar    1  UNL1        0.0009
     27 C          -9.1109   -4.6318   29.5881 C.ar    1  UNL1        0.0127
     28 C          -8.5375   -5.8144   30.0712 C.ar    1  UNL1        0.0714
     29 CL         -6.8079   -6.0593   29.8724 Cl      1  UNL1       -0.0809
     30 C          -8.5784   -9.1224   30.2815 C.3     1  UNL1        0.1314
     31 C          -9.8738   -9.4588   29.5426 C.3     1  UNL1        0.1590
     32 O          -9.8786   -8.8569   28.2783 O.3     1  UNL1       -0.3802
     33 H         -10.7453   -9.1007   27.8610 H       1  UNL1        0.2105
@<TRIPOS>BOND
     1     7     8    1
     2     8     9   ar
     3     9    10   ar
     4    10    11   ar
     5    11    12   ar
     6    12    13   ar
     7    13    14   ar
     8    14    15   ar
     9    15     1    1
    10     1     2   ar
    11     2     3   ar
    12     3     4   ar
    13     4    18    1
    14    18    19   am
    15    19    20    2
    16    19    21   am
    17    21    30    1
    18    30    31    1
    19    31    32    1
    20    21    23    1
    21    23    24   ar
    22    24    25   ar
    23    25    26   ar
    24    26    27   ar
    25    27    28   ar
    26    28    29    1
    27     4     5   ar
    28     5     6   ar
    29    15    16   ar
    30    16     8   ar
    31    16    11   ar
    32     6     1   ar
    33    28    23   ar
    34    10    17    1
    35    18    22    1
    36    32    33    1
@<TRIPOS>MOLECULE
*****
 33 36 0 0 0
SMALL
GASTEIGER

@<TRIPOS>ATOM
      1 C         -12.4236  -12.1498   31.8019 C.ar    1  UNL1        0.0179
      2 C         -12.7480  -10.8497   32.2151 C.ar    1  UNL1        0.0028
      3 C         -12.1750   -9.7452   31.5786 C.ar    1  UNL1        0.0148
      4 C         -11.2508   -9.9245   30.5391 C.ar    1  UNL1        0.0516
      5 C         -10.9234  -11.2298   30.1310 C.ar    1  UNL1        0.0148
      6 C         -11.4964  -12.3340   30.7676 C.ar    1  UNL1        0.0028
      7 C         -10.2659  -12.5901   34.2000 C.3     1  UNL1        0.0327
      8 C         -11.2546  -13.7052   34.3305 C.ar    1  UNL1       -0.0005
      9 C         -11.2140  -14.7137   35.2908 C.ar    1  UNL1        0.0693
     10 N         -12.2761  -15.5389   35.1576 N.ar    1  UNL1       -0.3376
     11 C         -12.9775  -15.0610   34.1182 C.ar    1  UNL1        0.1435
     12 N         -14.1537  -15.5557   33.6640 N.ar    1  UNL1       -0.2068
     13 C         -14.7643  -14.9265   32.6189 C.ar    1  UNL1        0.2002
     14 N         -14.1931  -13.8238   32.0436 N.ar    1  UNL1       -0.2239
     15 C         -13.0039  -13.3163   32.4847 C.ar    1  UNL1        0.0856
     16 C         -12.3885  -13.9560   33.5688 C.ar    1  UNL1        0.0491
     17 H         -12.5104  -16.3637   35.7532 H       1  UNL1        0.1674
     18 N         -10.6717   -8.7730   29.9025 N.am    1  UNL1       -0.2679
     19 C          -9.2900   -8.6798   29.5305 C.2     1  UNL1        0.3115
     20 O          -9.0048   -8.3548   28.3462 O.2     1  UNL1       -0.2519
     21 N          -8.2338   -8.9184   30.4891 N.am    1  UNL1       -0.2396
     22 H         -11.3094   -8.0089   29.5839 H       1  UNL1        0.1564
     23 C          -6.8777   -9.0602   30.0278 C.ar    1  UNL1        0.0659
     24 C          -6.0237   -7.9447   30.0140 C.ar    1  UNL1        0.0158
     25 C          -4.7000   -8.0734   29.5859 C.ar    1  UNL1        0.0013
     26 C          -4.2167   -9.3164   29.1720 C.ar    1  UNL1        0.0009
     27 C          -5.0558  -10.4335   29.1869 C.ar    1  UNL1        0.0127
     28 C          -6.3836  -10.3136   29.6150 C.ar    1  UNL1        0.0714
     29 CL         -7.4073  -11.7429   29.6088 Cl      1  UNL1       -0.0809
     30 C          -8.4546   -8.7166   31.9298 C.3     1  UNL1        0.1314
     31 C          -8.0846   -9.9701   32.7229 C.3     1  UNL1        0.1590
     32 O          -8.4194   -9.8037   34.0724 O.3     1  UNL1       -0.3802
     33 H          -8.1423  -10.6398   34.5294 H       1  UNL1        0.2105
@<TRIPOS>BOND
     1     7     8    1
     2     8     9   ar
     3     9    10   ar
     4    10    11   ar
     5    11    12   ar
     6    12    13   ar
     7    13    14   ar
     8    14    15   ar
     9    15     1    1
    10     1     2   ar
    11     2     3   ar
    12     3     4   ar
    13     4    18    1
    14    18    19   am
    15    19    20    2
    16    19    21   am
    17    21    30    1
    18    30    31    1
    19    31    32    1
    20    21    23    1
    21    23    24   ar
    22    24    25   ar
    23    25    26   ar
    24    26    27   ar
    25    27    28   ar
    26    28    29    1
    27     4     5   ar
    28     5     6   ar
    29    15    16   ar
    30    16     8   ar
    31    16    11   ar
    32     6     1   ar
    33    28    23   ar
    34    10    17    1
    35    18    22    1
    36    32    33    1
@<TRIPOS>MOLECULE
*****
 33 36 0 0 0
SMALL
GASTEIGER

@<TRIPOS>ATOM
      1 C         -10.5911  -12.3486   33.8171 C.ar    1  UNL1        0.0179
      2 C          -9.2306  -12.4619   34.1372 C.ar    1  UNL1        0.0028
      3 C          -8.3518  -11.4118   33.8572 C.ar    1  UNL1        0.0148
      4 C          -8.8147  -10.2459   33.2302 C.ar    1  UNL1        0.0516
      5 C         -10.1786  -10.1379   32.9054 C.ar    1  UNL1        0.0148
      6 C         -11.0572  -11.1880   33.1854 C.ar    1  UNL1        0.0028
      7 C         -10.9519  -13.5810   30.8252 C.3     1  UNL1        0.0327
      8 C         -11.8564  -14.3812   31.7081 C.ar    1  UNL1       -0.0005
      9 C         -12.6789  -15.4249   31.2898 C.ar    1  UNL1        0.0693
     10 N         -13.3349  -15.9630   32.3419 N.ar    1  UNL1       -0.3376
     11 C         -12.9367  -15.2613   33.4141 C.ar    1  UNL1        0.1435
     12 N         -13.3082  -15.4962   34.6952 N.ar    1  UNL1       -0.2068
     13 C         -12.7783  -14.7153   35.6802 C.ar    1  UNL1        0.2002
     14 N         -11.8957  -13.7154   35.3734 N.ar    1  UNL1       -0.2239
     15 C         -11.5160  -13.4604   34.0861 C.ar    1  UNL1        0.0856
     16 C         -12.0502  -14.2754   33.0793 C.ar    1  UNL1        0.0491
     17 H         -13.9976  -16.7696   32.3243 H       1  UNL1        0.1674
     18 N          -7.8908   -9.1810   32.9487 N.am    1  UNL1       -0.2679
     19 C          -8.2672   -7.9435   32.3297 C.2     1  UNL1        0.3115
     20 O          -7.9404   -6.8637   32.8924 O.2     1  UNL1       -0.2519
     21 N          -8.9779   -7.9165   31.0705 N.am    1  UNL1       -0.2396
     22 H          -6.9169   -9.2580   33.3196 H       1  UNL1        0.1564
     23 C          -9.5525   -6.6803   30.6082 C.ar    1  UNL1        0.0659
     24 C          -8.7510   -5.7481   29.9282 C.ar    1  UNL1        0.0158
     25 C          -9.3011   -4.5529   29.4584 C.ar    1  UNL1        0.0013
     26 C         -10.6557   -4.2798   29.6597 C.ar    1  UNL1        0.0009
     27 C         -11.4632   -5.2024   30.3299 C.ar    1  UNL1        0.0127
     28 C         -10.9202   -6.4030   30.8035 C.ar    1  UNL1        0.0714
     29 CL        -11.9700   -7.5313   31.6496 Cl      1  UNL1       -0.0809
     30 C          -8.8691   -9.0274   30.1118 C.3     1  UNL1        0.1314
     31 C         -10.1961   -9.2614   29.3896 C.3     1  UNL1        0.1590
     32 O         -10.1546   -8.6967   28.1088 O.3     1  UNL1       -0.3802
     33 H         -11.0435   -8.8698   27.7032 H       1  UNL1        0.2105
@<TRIPOS>BOND
     1     7     8    1
     2     8     9   ar
     3     9    10   ar
     4    10    11   ar
     5    11    12   ar
     6    12    13   ar
     7    13    14   ar
     8    14    15   ar
     9    15     1    1
    10     1     2   ar
    11     2     3   ar
    12     3     4   ar
    13     4    18    1
    14    18    19   am
    15    19    20    2
    16    19    21   am
    17    21    30    1
    18    30    31    1
    19    31    32    1
    20    21    23    1
    21    23    24   ar
    22    24    25   ar
    23    25    26   ar
    24    26    27   ar
    25    27    28   ar
    26    28    29    1
    27     4     5   ar
    28     5     6   ar
    29    15    16   ar
    30    16     8   ar
    31    16    11   ar
    32     6     1   ar
    33    28    23   ar
    34    10    17    1
    35    18    22    1
    36    32    33    1
@<TRIPOS>MOLECULE
*****
 33 36 0 0 0
SMALL
GASTEIGER

@<TRIPOS>ATOM
      1 C          -9.9620  -12.5193   33.3725 C.ar    1  UNL1        0.0179
      2 C          -9.2644  -11.9302   34.4368 C.ar    1  UNL1        0.0028
      3 C          -8.1263  -11.1573   34.1904 C.ar    1  UNL1        0.0148
      4 C          -7.6547  -10.9842   32.8810 C.ar    1  UNL1        0.0516
      5 C          -8.3535  -11.5809   31.8166 C.ar    1  UNL1        0.0148
      6 C          -9.4914  -12.3538   32.0632 C.ar    1  UNL1        0.0028
      7 C         -12.0428  -11.3186   31.1750 C.3     1  UNL1        0.0327
      8 C         -12.8088  -12.3499   31.9417 C.ar    1  UNL1       -0.0005
      9 C         -14.1444  -12.6864   31.7326 C.ar    1  UNL1        0.0693
     10 N         -14.5185  -13.6831   32.5652 N.ar    1  UNL1       -0.3376
     11 C         -13.4320  -13.9689   33.2989 C.ar    1  UNL1        0.1435
     12 N         -13.3423  -14.9480   34.2305 N.ar    1  UNL1       -0.2068
     13 C         -12.1480  -15.1385   34.8616 C.ar    1  UNL1        0.2002
     14 N         -11.0702  -14.3511   34.5593 N.ar    1  UNL1       -0.2239
     15 C         -11.1455  -13.3547   33.6277 C.ar    1  UNL1        0.0856
     16 C         -12.3695  -13.1733   32.9703 C.ar    1  UNL1        0.0491
     17 H         -15.4531  -14.1463   32.6119 H       1  UNL1        0.1674
     18 N          -6.4796  -10.1881   32.6532 N.am    1  UNL1       -0.2679
     19 C          -6.5149   -8.8305   32.1925 C.2     1  UNL1        0.3115
     20 O          -5.8805   -7.9562   32.8427 O.2     1  UNL1       -0.2519
     21 N          -7.2309   -8.4607   30.9918 N.am    1  UNL1       -0.2396
     22 H          -5.5544  -10.5725   32.9501 H       1  UNL1        0.1564
     23 C          -7.4516   -7.0687   30.6993 C.ar    1  UNL1        0.0659
     24 C          -6.3579   -6.2293   30.4287 C.ar    1  UNL1        0.0158
     25 C          -6.5604   -4.8806   30.1254 C.ar    1  UNL1        0.0013
     26 C          -7.8552   -4.3594   30.0860 C.ar    1  UNL1        0.0009
     27 C          -8.9505   -5.1865   30.3482 C.ar    1  UNL1        0.0127
     28 C          -8.7567   -6.5395   30.6523 C.ar    1  UNL1        0.0714
     29 CL        -10.1622   -7.5420   30.9848 Cl      1  UNL1       -0.0809
     30 C          -7.4693   -9.4372   29.9172 C.3     1  UNL1        0.1314
     31 C          -6.1895   -9.7055   29.1252 C.3     1  UNL1        0.1590
     32 O          -6.2914   -9.1541   27.8420 O.3     1  UNL1       -0.3802
     33 H          -5.4414   -9.3745   27.3798 H       1  UNL1        0.2105
@<TRIPOS>BOND
     1     7     8    1
     2     8     9   ar
     3     9    10   ar
     4    10    11   ar
     5    11    12   ar
     6    12    13   ar
     7    13    14   ar
     8    14    15   ar
     9    15     1    1
    10     1     2   ar
    11     2     3   ar
    12     3     4   ar
    13     4    18    1
    14    18    19   am
    15    19    20    2
    16    19    21   am
    17    21    30    1
    18    30    31    1
    19    31    32    1
    20    21    23    1
    21    23    24   ar
    22    24    25   ar
    23    25    26   ar
    24    26    27   ar
    25    27    28   ar
    26    28    29    1
    27     4     5   ar
    28     5     6   ar
    29    15    16   ar
    30    16     8   ar
    31    16    11   ar
    32     6     1   ar
    33    28    23   ar
    34    10    17    1
    35    18    22    1
    36    32    33    1
