@<TRIPOS>MOLECULE
*****
 47 52 0 0 0
SMALL
GASTEIGER

@<TRIPOS>ATOM
      1 C          61.3108   87.8441    8.8318 C.ar    1  UNL1        0.0702
      2 C          61.0980   88.5671   10.0156 C.ar    1  UNL1        0.0191
      3 C          61.0920   87.9090   11.2465 C.ar    1  UNL1        0.0356
      4 C          61.2738   86.5176   11.2897 C.ar    1  UNL1        0.1318
      5 N          61.4702   85.8369   10.1264 N.ar    1  UNL1       -0.2279
      6 C          61.4803   86.4569    8.9169 C.ar    1  UNL1        0.1149
      7 N          61.2961   85.8071   12.5421 N.pl3   1  UNL1       -0.2932
      8 C          62.3316   86.0637   13.5531 C.3     1  UNL1        0.0923
      9 C          62.9582   84.7458   14.0393 C.3     1  UNL1        0.0252
     10 C          61.9632   83.5529   14.0411 C.3     1  UNL1        0.0472
     11 C          60.5018   84.0348   14.0963 C.3     1  UNL1        0.0252
     12 C          60.1846   84.9008   12.8675 C.3     1  UNL1        0.0923
     13 C          62.2560   82.5791   15.1985 C.3     1  UNL1        0.2054
     14 O          62.6166   81.2877   14.7047 O.3     1  UNL1       -0.4755
     15 C          62.1426   80.7022   13.5189 C.ar    1  UNL1        0.1388
     16 C          62.8395   80.9600   12.3370 C.ar    1  UNL1        0.0382
     17 C          62.4181   80.4058   11.1285 C.ar    1  UNL1        0.0174
     18 C          61.2897   79.5753   11.0768 C.ar    1  UNL1        0.0480
     19 N          60.9370   78.9693    9.8254 N.pl3   1  UNL1       -0.3568
     20 C          60.5627   79.3157   12.2649 C.ar    1  UNL1        0.0913
     21 C          61.0060   79.8729   13.4778 C.ar    1  UNL1        0.0446
     22 H          60.2601   78.1784    9.7629 H       1  UNL1        0.1424
     23 H          61.4343   79.2408    8.9480 H       1  UNL1        0.1424
     24 C          59.3202   78.5105   12.2681 C.2     1  UNL1        0.3393
     25 O          58.5061   78.6065   13.2242 O.2     1  UNL1       -0.2450
     26 O          59.0512   77.6074   11.2419 O.3     1  UNL1       -0.4771
     27 H          59.6574   77.5232   10.4349 H       1  UNL1        0.2954
     28 C          60.1015   88.7970    6.8112 C.2     1  UNL1        0.2839
     29 O          58.9723   88.4574    7.2554 O.2     1  UNL1       -0.2665
     30 N          61.2987   88.4785    7.5423 N.am    1  UNL1       -0.2766
     31 H          62.2200   88.7694    7.1489 H       1  UNL1        0.1553
     32 C          57.6265   89.9553    5.0743 C.3     1  UNL1        0.0345
     33 C          59.0938   90.0219    4.7764 C.ar    1  UNL1        0.0202
     34 C          60.1614   89.5031    5.5198 C.ar    1  UNL1        0.1946
     35 O          61.2999   89.7147    4.8831 O.2     1  UNL1       -0.4492
     36 C          61.0288   90.3654    3.7783 C.ar    1  UNL1        0.1452
     37 C          61.9272   90.7983    2.8092 C.ar    1  UNL1        0.0375
     38 C          61.4147   91.4812    1.6921 C.ar    1  UNL1        0.0031
     39 C          60.0195   91.7195    1.5606 C.ar    1  UNL1        0.0002
     40 C          59.1395   91.2609    2.5702 C.ar    1  UNL1        0.0028
     41 C          59.6837   90.5890    3.6648 C.ar    1  UNL1        0.0337
     42 C          59.4894   92.4418    0.3764 C.ar    1  UNL1        0.0000
     43 C          58.1137   92.4154    0.0782 C.ar    1  UNL1        0.0000
     44 C          57.6174   93.0975   -1.0370 C.ar    1  UNL1        0.0000
     45 C          58.4857   93.8113   -1.8658 C.ar    1  UNL1        0.0000
     46 C          59.8525   93.8452   -1.5809 C.ar    1  UNL1        0.0000
     47 C          60.3542   93.1658   -0.4665 C.ar    1  UNL1        0.0000
@<TRIPOS>BOND
     1    32    33    1
     2    33    34   ar
     3    34    28    1
     4    28    29    2
     5    28    30   am
     6    30     1    1
     7     1     2   ar
     8     2     3   ar
     9     3     4   ar
    10     4     7    1
    11     7     8    1
    12     8     9    1
    13     9    10    1
    14    10    13    1
    15    13    14    1
    16    14    15    1
    17    15    16   ar
    18    16    17   ar
    19    17    18   ar
    20    18    19    1
    21    18    20   ar
    22    20    24    1
    23    24    25    2
    24    24    26    1
    25    20    21   ar
    26    10    11    1
    27    11    12    1
    28     4     5   ar
    29     5     6   ar
    30    34    35   ar
    31    35    36   ar
    32    36    37   ar
    33    37    38   ar
    34    38    39   ar
    35    39    42    1
    36    42    43   ar
    37    43    44   ar
    38    44    45   ar
    39    45    46   ar
    40    46    47   ar
    41    39    40   ar
    42    40    41   ar
    43    41    33   ar
    44     6     1   ar
    45    41    36   ar
    46    12     7    1
    47    47    42   ar
    48    21    15   ar
    49    30    31    1
    50    19    22    1
    51    19    23    1
    52    26    27    1
@<TRIPOS>MOLECULE
*****
 47 52 0 0 0
SMALL
GASTEIGER

@<TRIPOS>ATOM
      1 C          61.0633   88.1134    8.9953 C.ar    1  UNL1        0.0702
      2 C          60.2461   87.0055    9.2676 C.ar    1  UNL1        0.0191
      3 C          60.2506   86.4275   10.5381 C.ar    1  UNL1        0.0356
      4 C          61.0962   86.9449   11.5322 C.ar    1  UNL1        0.1318
      5 N          61.8862   88.0156   11.2411 N.ar    1  UNL1       -0.2279
      6 C          61.8978   88.5944   10.0115 C.ar    1  UNL1        0.1149
      7 N          61.1119   86.3895   12.8608 N.pl3   1  UNL1       -0.2932
      8 C          62.2129   86.6626   13.7952 C.3     1  UNL1        0.0923
      9 C          62.7378   85.3573   14.4169 C.3     1  UNL1        0.0252
     10 C          61.6384   84.2753   14.6004 C.3     1  UNL1        0.0472
     11 C          60.2318   84.8998   14.6480 C.3     1  UNL1        0.0252
     12 C          59.9382   85.6404   13.3342 C.3     1  UNL1        0.0923
     13 C          61.8945   83.4221   15.8574 C.3     1  UNL1        0.2054
     14 O          62.4121   82.1366   15.5093 O.3     1  UNL1       -0.4755
     15 C          62.3347   81.5383   14.2405 C.ar    1  UNL1        0.1388
     16 C          61.3694   80.5498   14.0402 C.ar    1  UNL1        0.0382
     17 C          61.2433   79.9204   12.8021 C.ar    1  UNL1        0.0174
     18 C          62.0797   80.2706   11.7327 C.ar    1  UNL1        0.0480
     19 N          61.8651   79.6489   10.4578 N.pl3   1  UNL1       -0.3568
     20 C          63.0743   81.2613   11.9238 C.ar    1  UNL1        0.0913
     21 C          63.1823   81.8948   13.1749 C.ar    1  UNL1        0.0446
     22 H          62.2915   80.0190    9.5810 H       1  UNL1        0.1424
     23 H          61.1847   78.8624   10.3614 H       1  UNL1        0.1424
     24 C          64.0391   81.6244   10.8610 C.2     1  UNL1        0.3393
     25 O          63.8765   81.2002    9.6864 O.2     1  UNL1       -0.2450
     26 O          65.1593   82.4017   11.1478 O.3     1  UNL1       -0.4771
     27 H          65.3118   82.7958   12.0682 H       1  UNL1        0.2954
     28 C          59.9710   88.8469    6.8224 C.2     1  UNL1        0.2839
     29 O          58.8605   88.3467    7.1453 O.2     1  UNL1       -0.2665
     30 N          61.1084   88.7220    7.6942 N.am    1  UNL1       -0.2766
     31 H          62.0160   89.1434    7.3995 H       1  UNL1        0.1553
     32 C          57.5617   90.0251    5.0082 C.3     1  UNL1        0.0345
     33 C          59.0372   90.0646    4.7484 C.ar    1  UNL1        0.0202
     34 C          60.0763   89.5373    5.5253 C.ar    1  UNL1        0.1946
     35 O          61.2344   89.7233    4.9167 O.2     1  UNL1       -0.4492
     36 C          61.0030   90.3658    3.7980 C.ar    1  UNL1        0.1452
     37 C          61.9335   90.7731    2.8483 C.ar    1  UNL1        0.0375
     38 C          61.4616   91.4515    1.7107 C.ar    1  UNL1        0.0031
     39 C          60.0744   91.7106    1.5398 C.ar    1  UNL1        0.0002
     40 C          59.1610   91.2777    2.5308 C.ar    1  UNL1        0.0028
     41 C          59.6652   90.6096    3.6466 C.ar    1  UNL1        0.0337
     42 C          59.5875   92.4279    0.3342 C.ar    1  UNL1        0.0000
     43 C          60.4788   93.1630   -0.4703 C.ar    1  UNL1        0.0000
     44 C          60.0176   93.8365   -1.6056 C.ar    1  UNL1        0.0000
     45 C          58.6651   93.7850   -1.9501 C.ar    1  UNL1        0.0000
     46 C          57.7707   93.0594   -1.1601 C.ar    1  UNL1        0.0000
     47 C          58.2266   92.3832   -0.0242 C.ar    1  UNL1        0.0000
@<TRIPOS>BOND
     1    32    33    1
     2    33    34   ar
     3    34    28    1
     4    28    29    2
     5    28    30   am
     6    30     1    1
     7     1     2   ar
     8     2     3   ar
     9     3     4   ar
    10     4     7    1
    11     7     8    1
    12     8     9    1
    13     9    10    1
    14    10    13    1
    15    13    14    1
    16    14    15    1
    17    15    16   ar
    18    16    17   ar
    19    17    18   ar
    20    18    19    1
    21    18    20   ar
    22    20    24    1
    23    24    25    2
    24    24    26    1
    25    20    21   ar
    26    10    11    1
    27    11    12    1
    28     4     5   ar
    29     5     6   ar
    30    34    35   ar
    31    35    36   ar
    32    36    37   ar
    33    37    38   ar
    34    38    39   ar
    35    39    42    1
    36    42    43   ar
    37    43    44   ar
    38    44    45   ar
    39    45    46   ar
    40    46    47   ar
    41    39    40   ar
    42    40    41   ar
    43    41    33   ar
    44     6     1   ar
    45    41    36   ar
    46    12     7    1
    47    47    42   ar
    48    21    15   ar
    49    30    31    1
    50    19    22    1
    51    19    23    1
    52    26    27    1
@<TRIPOS>MOLECULE
*****
 47 52 0 0 0
SMALL
GASTEIGER

@<TRIPOS>ATOM
      1 C          60.9616   86.8173    8.4053 C.ar    1  UNL1        0.0702
      2 C          59.9532   85.9097    8.7643 C.ar    1  UNL1        0.0191
      3 C          60.0363   85.2116    9.9701 C.ar    1  UNL1        0.0356
      4 C          61.1467   85.4039   10.8075 C.ar    1  UNL1        0.1318
      5 N          62.1165   86.2840   10.4331 N.ar    1  UNL1       -0.2279
      6 C          62.0561   86.9747    9.2641 C.ar    1  UNL1        0.1149
      7 N          61.2565   84.7186   12.0693 N.pl3   1  UNL1       -0.2932
      8 C          62.4515   84.8510   12.9145 C.3     1  UNL1        0.0923
      9 C          62.9642   83.4694   13.3553 C.3     1  UNL1        0.0252
     10 C          61.8326   82.4214   13.5404 C.3     1  UNL1        0.0472
     11 C          60.4701   83.0963   13.7831 C.3     1  UNL1        0.0252
     12 C          60.0948   83.9758   12.5805 C.3     1  UNL1        0.0923
     13 C          62.1597   81.4372   14.6796 C.3     1  UNL1        0.2054
     14 O          61.4849   80.1918   14.4924 O.3     1  UNL1       -0.4755
     15 C          60.6559   79.8641   13.4065 C.ar    1  UNL1        0.1388
     16 C          59.3308   79.5166   13.6754 C.ar    1  UNL1        0.0382
     17 C          58.4595   79.1828   12.6388 C.ar    1  UNL1        0.0174
     18 C          58.8950   79.1941   11.3062 C.ar    1  UNL1        0.0480
     19 N          57.9447   78.9151   10.2684 N.pl3   1  UNL1       -0.3568
     20 C          60.2408   79.5300   11.0175 C.ar    1  UNL1        0.0913
     21 C          61.1048   79.8748   12.0725 C.ar    1  UNL1        0.0446
     22 H          58.1404   79.1244    9.2657 H       1  UNL1        0.1424
     23 H          56.9821   78.5877   10.5074 H       1  UNL1        0.1424
     24 C          60.7856   79.4878    9.6415 C.2     1  UNL1        0.3393
     25 O          60.1046   79.9267    8.6772 O.2     1  UNL1       -0.2450
     26 O          62.0350   78.9275    9.3843 O.3     1  UNL1       -0.4771
     27 H          62.6333   78.5963   10.1314 H       1  UNL1        0.2954
     28 C          60.1315   88.7123    6.9312 C.2     1  UNL1        0.2839
     29 O          59.3468   89.1369    7.8210 O.2     1  UNL1       -0.2665
     30 N          60.9278   87.5367    7.1616 N.am    1  UNL1       -0.2766
     31 H          61.5664   87.2063    6.4059 H       1  UNL1        0.1553
     32 C          57.6523   89.8156    5.1649 C.3     1  UNL1        0.0345
     33 C          59.1217   89.9301    4.8933 C.ar    1  UNL1        0.0202
     34 C          60.1918   89.4352    5.6491 C.ar    1  UNL1        0.1946
     35 O          61.3340   89.6888    5.0348 O.2     1  UNL1       -0.4492
     36 C          61.0619   90.3441    3.9328 C.ar    1  UNL1        0.1452
     37 C          61.9631   90.8155    2.9844 C.ar    1  UNL1        0.0375
     38 C          61.4490   91.4957    1.8665 C.ar    1  UNL1        0.0031
     39 C          60.0496   91.6931    1.7135 C.ar    1  UNL1        0.0002
     40 C          59.1670   91.1961    2.7024 C.ar    1  UNL1        0.0028
     41 C          59.7128   90.5281    3.7985 C.ar    1  UNL1        0.0337
     42 C          59.5179   92.4130    0.5285 C.ar    1  UNL1        0.0000
     43 C          58.1485   92.3506    0.2077 C.ar    1  UNL1        0.0000
     44 C          57.6506   93.0305   -0.9081 C.ar    1  UNL1        0.0000
     45 C          58.5111   93.7780   -1.7151 C.ar    1  UNL1        0.0000
     46 C          59.8717   93.8477   -1.4077 C.ar    1  UNL1        0.0000
     47 C          60.3749   93.1707   -0.2926 C.ar    1  UNL1        0.0000
@<TRIPOS>BOND
     1    32    33    1
     2    33    34   ar
     3    34    28    1
     4    28    29    2
     5    28    30   am
     6    30     1    1
     7     1     2   ar
     8     2     3   ar
     9     3     4   ar
    10     4     7    1
    11     7     8    1
    12     8     9    1
    13     9    10    1
    14    10    13    1
    15    13    14    1
    16    14    15    1
    17    15    16   ar
    18    16    17   ar
    19    17    18   ar
    20    18    19    1
    21    18    20   ar
    22    20    24    1
    23    24    25    2
    24    24    26    1
    25    20    21   ar
    26    10    11    1
    27    11    12    1
    28     4     5   ar
    29     5     6   ar
    30    34    35   ar
    31    35    36   ar
    32    36    37   ar
    33    37    38   ar
    34    38    39   ar
    35    39    42    1
    36    42    43   ar
    37    43    44   ar
    38    44    45   ar
    39    45    46   ar
    40    46    47   ar
    41    39    40   ar
    42    40    41   ar
    43    41    33   ar
    44     6     1   ar
    45    41    36   ar
    46    12     7    1
    47    47    42   ar
    48    21    15   ar
    49    30    31    1
    50    19    22    1
    51    19    23    1
    52    26    27    1
@<TRIPOS>MOLECULE
*****
 47 52 0 0 0
SMALL
GASTEIGER

@<TRIPOS>ATOM
      1 C          59.9354   89.3638    6.1108 C.ar    1  UNL1        0.0702
      2 C          58.6288   89.7704    5.7995 C.ar    1  UNL1        0.0191
      3 C          58.3810   90.5007    4.6361 C.ar    1  UNL1        0.0356
      4 C          59.4499   90.8474    3.7944 C.ar    1  UNL1        0.1318
      5 N          60.7102   90.4483    4.1224 N.ar    1  UNL1       -0.2279
      6 C          60.9745   89.7365    5.2496 C.ar    1  UNL1        0.1149
      7 N          59.2307   91.5806    2.5744 N.pl3   1  UNL1       -0.2932
      8 C          58.2817   91.1108    1.5552 C.3     1  UNL1        0.0923
      9 C          58.9322   91.1127    0.1614 C.3     1  UNL1        0.0252
     10 C          59.9830   92.2410   -0.0277 C.3     1  UNL1        0.0472
     11 C          59.7538   93.3995    0.9603 C.3     1  UNL1        0.0252
     12 C          59.8737   92.8923    2.4057 C.3     1  UNL1        0.0923
     13 C          59.9940   92.7608   -1.4780 C.3     1  UNL1        0.2054
     14 O          61.3229   92.7943   -2.0018 O.3     1  UNL1       -0.4755
     15 C          62.4938   92.4952   -1.2855 C.ar    1  UNL1        0.1388
     16 C          63.5546   91.9099   -1.9791 C.ar    1  UNL1        0.0382
     17 C          64.7431   91.5913   -1.3226 C.ar    1  UNL1        0.0174
     18 C          64.8985   91.8565    0.0453 C.ar    1  UNL1        0.0480
     19 N          66.1639   91.5793    0.6616 N.pl3   1  UNL1       -0.3568
     20 C          63.8261   92.4365    0.7671 C.ar    1  UNL1        0.0913
     21 C          62.6376   92.7621    0.0891 C.ar    1  UNL1        0.0446
     22 H          66.4179   91.9544    1.6008 H       1  UNL1        0.1424
     23 H          66.9099   91.0747    0.1327 H       1  UNL1        0.1424
     24 C          63.8955   92.6727    2.2270 C.2     1  UNL1        0.3393
     25 O          64.4762   93.6961    2.6759 O.2     1  UNL1       -0.2450
     26 O          63.3606   91.7525    3.1261 O.3     1  UNL1       -0.4771
     27 H          62.8525   90.9349    2.8113 H       1  UNL1        0.2954
     28 C          59.8002   87.2873    7.5678 C.2     1  UNL1        0.2839
     29 O          59.0464   86.6937    6.7510 O.2     1  UNL1       -0.2665
     30 N          60.2375   88.6335    7.3111 N.am    1  UNL1       -0.2766
     31 H          60.8587   89.1012    8.0064 H       1  UNL1        0.1553
     32 C          61.8726   84.8143    7.8377 C.3     1  UNL1        0.0345
     33 C          61.1088   85.5200    8.9169 C.ar    1  UNL1        0.0202
     34 C          60.1981   86.5770    8.7954 C.ar    1  UNL1        0.1946
     35 O          59.6888   86.8725    9.9785 O.2     1  UNL1       -0.4492
     36 C          60.2402   86.0791   10.8640 C.ar    1  UNL1        0.1452
     37 C          60.0026   86.0453   12.2338 C.ar    1  UNL1        0.0375
     38 C          60.7082   85.1032   13.0028 C.ar    1  UNL1        0.0031
     39 C          61.6351   84.2133   12.3948 C.ar    1  UNL1        0.0002
     40 C          61.8464   84.2810   10.9967 C.ar    1  UNL1        0.0028
     41 C          61.1303   85.2293   10.2661 C.ar    1  UNL1        0.0337
     42 C          62.3745   83.2223   13.2170 C.ar    1  UNL1        0.0000
     43 C          61.6965   82.1500   13.8275 C.ar    1  UNL1        0.0000
     44 C          62.3957   81.2177   14.6002 C.ar    1  UNL1        0.0000
     45 C          63.7757   81.3444   14.7730 C.ar    1  UNL1        0.0000
     46 C          64.4599   82.4038   14.1729 C.ar    1  UNL1        0.0000
     47 C          63.7660   83.3385   13.3983 C.ar    1  UNL1        0.0000
@<TRIPOS>BOND
     1    32    33    1
     2    33    34   ar
     3    34    28    1
     4    28    29    2
     5    28    30   am
     6    30     1    1
     7     1     2   ar
     8     2     3   ar
     9     3     4   ar
    10     4     7    1
    11     7     8    1
    12     8     9    1
    13     9    10    1
    14    10    13    1
    15    13    14    1
    16    14    15    1
    17    15    16   ar
    18    16    17   ar
    19    17    18   ar
    20    18    19    1
    21    18    20   ar
    22    20    24    1
    23    24    25    2
    24    24    26    1
    25    20    21   ar
    26    10    11    1
    27    11    12    1
    28     4     5   ar
    29     5     6   ar
    30    34    35   ar
    31    35    36   ar
    32    36    37   ar
    33    37    38   ar
    34    38    39   ar
    35    39    42    1
    36    42    43   ar
    37    43    44   ar
    38    44    45   ar
    39    45    46   ar
    40    46    47   ar
    41    39    40   ar
    42    40    41   ar
    43    41    33   ar
    44     6     1   ar
    45    41    36   ar
    46    12     7    1
    47    47    42   ar
    48    21    15   ar
    49    30    31    1
    50    19    22    1
    51    19    23    1
    52    26    27    1
