@<TRIPOS>MOLECULE
*****
 38 40 0 0 0
SMALL
GASTEIGER

@<TRIPOS>ATOM
      1 C         -22.7745   -9.6162  -12.7686 C.ar    1  UNL1       -0.0023
      2 C         -21.5672   -8.9126  -12.8976 C.ar    1  UNL1       -0.0026
      3 C         -20.6048   -8.9694  -11.8865 C.ar    1  UNL1       -0.0003
      4 C         -20.8292   -9.7420  -10.7358 C.ar    1  UNL1        0.0001
      5 C         -22.0365  -10.4459  -10.6063 C.ar    1  UNL1       -0.0003
      6 C         -22.9992  -10.3881  -11.6172 C.ar    1  UNL1       -0.0026
      7 C         -19.8188   -9.7876   -9.6533 C.ar    1  UNL1        0.0032
      8 C         -18.8779  -10.8325   -9.6662 C.ar    1  UNL1        0.0065
      9 C         -17.9559  -10.9904   -8.6186 C.ar    1  UNL1        0.0755
     10 C         -17.9863  -10.0905   -7.5444 C.ar    1  UNL1        0.0065
     11 C         -18.9068   -9.0422   -7.5241 C.ar    1  UNL1        0.0033
     12 C         -19.8163   -8.8620   -8.5781 C.ar    1  UNL1        0.0371
     13 C         -20.7166   -7.6862   -8.5325 C.ar    1  UNL1        0.1806
     14 N         -20.3122   -6.4144   -8.7126 N.ar    1  UNL1       -0.1084
     15 N         -21.4198   -5.6888   -8.6484 N.ar    1  UNL1       -0.0229
     16 N         -22.4657   -6.4769   -8.4508 N.ar    1  UNL1       -0.0464
     17 N         -22.0515   -7.7286   -8.3788 N.ar    1  UNL1       -0.2388
     18 H         -22.6715   -8.5604   -8.2676 H       1  UNL1        0.1923
     19 C         -16.9733  -12.0973   -8.6368 C.2     1  UNL1        0.3380
     20 O         -15.7531  -11.8724   -8.4127 O.2     1  UNL1       -0.2451
     21 O         -17.3882  -13.4000   -8.9014 O.3     1  UNL1       -0.4771
     22 H         -16.7241  -14.1649   -8.9159 H       1  UNL1        0.2954
     23 C         -23.8345   -9.5085  -13.8333 C.3     1  UNL1        0.1206
     24 C         -24.2952  -11.8875  -14.4303 C.2     1  UNL1        0.2262
     25 O         -23.9321  -12.4391  -13.3571 O.2     1  UNL1       -0.2749
     26 N         -23.7273  -10.6137  -14.7987 N.am    1  UNL1       -0.2673
     27 C         -25.4070  -12.5171  -15.2203 C.3     1  UNL1        0.0853
     28 C         -25.4802  -14.0212  -14.9276 C.3     1  UNL1        0.0096
     29 C         -23.3343  -15.2780  -15.4963 C.3     1  UNL1        0.0000
     30 C         -24.7267  -14.8609  -15.9702 C.3     1  UNL1        0.0005
     31 C         -23.0631  -10.3732  -16.1044 C.3     1  UNL1        0.1746
     32 C         -21.9588  -11.3820  -16.3577 C.2     1  UNL1        0.3320
     33 O         -21.1718  -11.6892  -15.4235 O.2     1  UNL1       -0.2485
     34 O         -21.8573  -12.0795  -17.5609 O.3     1  UNL1       -0.4790
     35 H         -22.5110  -11.9578  -18.3221 H       1  UNL1        0.2951
     36 C         -22.6612   -8.8778  -16.3300 C.3     1  UNL1        0.0292
     37 C         -21.1386   -8.7039  -16.4280 C.3     1  UNL1        0.0023
     38 C         -23.3536   -8.1922  -17.5203 C.3     1  UNL1        0.0023
@<TRIPOS>BOND
     1    29    30    1
     2    30    28    1
     3    28    27    1
     4    27    24    1
     5    24    25    2
     6    24    26   am
     7    26    23    1
     8    23     1    1
     9     1     2   ar
    10     2     3   ar
    11     3     4   ar
    12     4     7    1
    13     7     8   ar
    14     8     9   ar
    15     9    19    1
    16    19    20    2
    17    19    21    1
    18     9    10   ar
    19    10    11   ar
    20    11    12   ar
    21    12    13    1
    22    13    14   ar
    23    14    15   ar
    24    15    16   ar
    25    16    17   ar
    26     4     5   ar
    27     5     6   ar
    28    26    31    1
    29    31    32    1
    30    32    33    2
    31    32    34    1
    32    31    36    1
    33    36    37    1
    34    36    38    1
    35     6     1   ar
    36    12     7   ar
    37    17    13   ar
    38    21    22    1
    39    17    18    1
    40    34    35    1
@<TRIPOS>MOLECULE
*****
 38 40 0 0 0
SMALL
GASTEIGER

@<TRIPOS>ATOM
      1 C         -22.0934   -9.7338  -12.9712 C.ar    1  UNL1       -0.0023
      2 C         -21.2822   -8.6329  -12.6563 C.ar    1  UNL1       -0.0026
      3 C         -20.4440   -8.6695  -11.5391 C.ar    1  UNL1       -0.0003
      4 C         -20.3942   -9.8134  -10.7266 C.ar    1  UNL1        0.0001
      5 C         -21.2054  -10.9147  -11.0411 C.ar    1  UNL1       -0.0003
      6 C         -22.0442  -10.8775  -12.1579 C.ar    1  UNL1       -0.0026
      7 C         -19.5214   -9.8469   -9.5299 C.ar    1  UNL1        0.0032
      8 C         -18.5091  -10.8212   -9.4729 C.ar    1  UNL1        0.0065
      9 C         -17.7110  -10.9709   -8.3270 C.ar    1  UNL1        0.0755
     10 C         -17.9393  -10.1348   -7.2254 C.ar    1  UNL1        0.0065
     11 C         -18.9325   -9.1560   -7.2724 C.ar    1  UNL1        0.0033
     12 C         -19.7191   -8.9831   -8.4221 C.ar    1  UNL1        0.0371
     13 C         -20.7051   -7.8772   -8.4357 C.ar    1  UNL1        0.1806
     14 N         -20.3843   -6.5773   -8.5799 N.ar    1  UNL1       -0.1084
     15 N         -21.5445   -5.9359   -8.5921 N.ar    1  UNL1       -0.0229
     16 N         -22.5404   -6.8009   -8.4744 N.ar    1  UNL1       -0.0464
     17 N         -22.0407   -8.0193   -8.3789 N.ar    1  UNL1       -0.2388
     18 H         -22.6036   -8.8957   -8.3169 H       1  UNL1        0.1923
     19 C         -16.6522  -12.0037   -8.2729 C.2     1  UNL1        0.3380
     20 O         -16.7077  -13.0159   -9.0228 O.2     1  UNL1       -0.2451
     21 O         -15.5822  -11.8667   -7.3922 O.3     1  UNL1       -0.4771
     22 H         -14.8521  -12.5676   -7.3473 H       1  UNL1        0.2954
     23 C         -23.0381   -9.6714  -14.1428 C.3     1  UNL1        0.1206
     24 C         -24.4408  -11.7331  -14.0442 C.2     1  UNL1        0.2262
     25 O         -24.4514  -11.9109  -12.7967 O.2     1  UNL1       -0.2749
     26 N         -23.3424  -11.0194  -14.6481 N.am    1  UNL1       -0.2673
     27 C         -25.6424  -12.1573  -14.8397 C.3     1  UNL1        0.0853
     28 C         -26.0981  -13.5568  -14.4073 C.3     1  UNL1        0.0096
     29 C         -25.0972  -15.0627  -16.2069 C.3     1  UNL1        0.0000
     30 C         -25.0616  -14.6414  -14.7378 C.3     1  UNL1        0.0005
     31 C         -22.5288  -11.5780  -15.7571 C.3     1  UNL1        0.1746
     32 C         -23.1662  -11.3005  -17.1055 C.2     1  UNL1        0.3320
     33 O         -22.8834  -10.2376  -17.7191 O.2     1  UNL1       -0.2485
     34 O         -23.9649  -12.2425  -17.7528 O.3     1  UNL1       -0.4790
     35 H         -24.1571  -13.1566  -17.3667 H       1  UNL1        0.2951
     36 C         -22.0939  -13.0625  -15.5209 C.3     1  UNL1        0.0292
     37 C         -21.4815  -13.6862  -16.7835 C.3     1  UNL1        0.0023
     38 C         -21.1660  -13.2827  -14.3139 C.3     1  UNL1        0.0023
@<TRIPOS>BOND
     1    29    30    1
     2    30    28    1
     3    28    27    1
     4    27    24    1
     5    24    25    2
     6    24    26   am
     7    26    23    1
     8    23     1    1
     9     1     2   ar
    10     2     3   ar
    11     3     4   ar
    12     4     7    1
    13     7     8   ar
    14     8     9   ar
    15     9    19    1
    16    19    20    2
    17    19    21    1
    18     9    10   ar
    19    10    11   ar
    20    11    12   ar
    21    12    13    1
    22    13    14   ar
    23    14    15   ar
    24    15    16   ar
    25    16    17   ar
    26     4     5   ar
    27     5     6   ar
    28    26    31    1
    29    31    32    1
    30    32    33    2
    31    32    34    1
    32    31    36    1
    33    36    37    1
    34    36    38    1
    35     6     1   ar
    36    12     7   ar
    37    17    13   ar
    38    21    22    1
    39    17    18    1
    40    34    35    1
@<TRIPOS>MOLECULE
*****
 38 40 0 0 0
SMALL
GASTEIGER

@<TRIPOS>ATOM
      1 C         -21.6660   -9.5290  -13.1569 C.ar    1  UNL1       -0.0023
      2 C         -20.9710   -8.4096  -12.6741 C.ar    1  UNL1       -0.0026
      3 C         -20.2307   -8.4933  -11.4922 C.ar    1  UNL1       -0.0003
      4 C         -20.1629   -9.7022  -10.7815 C.ar    1  UNL1        0.0001
      5 C         -20.8577  -10.8221  -11.2640 C.ar    1  UNL1       -0.0003
      6 C         -21.5988  -10.7378  -12.4455 C.ar    1  UNL1       -0.0026
      7 C         -19.3950   -9.7879   -9.5174 C.ar    1  UNL1        0.0032
      8 C         -18.3833  -10.7596   -9.4190 C.ar    1  UNL1        0.0065
      9 C         -17.6847  -10.9593   -8.2172 C.ar    1  UNL1        0.0755
     10 C         -18.0129  -10.1766   -7.1017 C.ar    1  UNL1        0.0065
     11 C         -19.0065   -9.2009   -7.1882 C.ar    1  UNL1        0.0033
     12 C         -19.6936   -8.9776   -8.3918 C.ar    1  UNL1        0.0371
     13 C         -20.6838   -7.8766   -8.4386 C.ar    1  UNL1        0.1806
     14 N         -20.3626   -6.5706   -8.5083 N.ar    1  UNL1       -0.1084
     15 N         -21.5232   -5.9344   -8.5848 N.ar    1  UNL1       -0.0229
     16 N         -22.5188   -6.8078   -8.5765 N.ar    1  UNL1       -0.0464
     17 N         -22.0188   -8.0267   -8.4895 N.ar    1  UNL1       -0.2388
     18 H         -22.5783   -8.9073   -8.5041 H       1  UNL1        0.1923
     19 C         -16.6259  -11.9890   -8.1204 C.2     1  UNL1        0.3380
     20 O         -16.7056  -13.0528   -8.7926 O.2     1  UNL1       -0.2451
     21 O         -15.5293  -11.7921   -7.2850 O.3     1  UNL1       -0.4771
     22 H         -14.7990  -12.4903   -7.2115 H       1  UNL1        0.2954
     23 C         -22.5095   -9.4218  -14.4003 C.3     1  UNL1        0.1206
     24 C         -24.7260  -10.5430  -14.6415 C.2     1  UNL1        0.2262
     25 O         -24.7360  -10.7042  -15.8912 O.2     1  UNL1       -0.2749
     26 N         -23.9429   -9.4739  -14.0720 N.am    1  UNL1       -0.2673
     27 C         -25.4268  -11.5560  -13.7816 C.3     1  UNL1        0.0853
     28 C         -24.6163  -12.8573  -13.7271 C.3     1  UNL1        0.0096
     29 C         -24.8951  -14.6165  -15.5535 C.3     1  UNL1        0.0000
     30 C         -25.4169  -14.0705  -14.2242 C.3     1  UNL1        0.0005
     31 C         -24.5161   -8.4475  -13.1654 C.3     1  UNL1        0.1746
     32 C         -24.4143   -8.8731  -11.7129 C.2     1  UNL1        0.3320
     33 O         -24.7604  -10.0378  -11.3811 O.2     1  UNL1       -0.2485
     34 O         -23.8316   -8.0576  -10.7434 O.3     1  UNL1       -0.4790
     35 H         -23.4425   -7.1487  -10.9531 H       1  UNL1        0.2951
     36 C         -25.9286   -7.9439  -13.6125 C.3     1  UNL1        0.0292
     37 C         -26.9799   -8.1391  -12.5105 C.3     1  UNL1        0.0023
     38 C         -25.9664   -6.4975  -14.1350 C.3     1  UNL1        0.0023
@<TRIPOS>BOND
     1    29    30    1
     2    30    28    1
     3    28    27    1
     4    27    24    1
     5    24    25    2
     6    24    26   am
     7    26    23    1
     8    23     1    1
     9     1     2   ar
    10     2     3   ar
    11     3     4   ar
    12     4     7    1
    13     7     8   ar
    14     8     9   ar
    15     9    19    1
    16    19    20    2
    17    19    21    1
    18     9    10   ar
    19    10    11   ar
    20    11    12   ar
    21    12    13    1
    22    13    14   ar
    23    14    15   ar
    24    15    16   ar
    25    16    17   ar
    26     4     5   ar
    27     5     6   ar
    28    26    31    1
    29    31    32    1
    30    32    33    2
    31    32    34    1
    32    31    36    1
    33    36    37    1
    34    36    38    1
    35     6     1   ar
    36    12     7   ar
    37    17    13   ar
    38    21    22    1
    39    17    18    1
    40    34    35    1
@<TRIPOS>MOLECULE
*****
 38 40 0 0 0
SMALL
GASTEIGER

@<TRIPOS>ATOM
      1 C         -21.8071   -9.4874  -13.1648 C.ar    1  UNL1       -0.0023
      2 C         -21.1491   -8.3504  -12.6711 C.ar    1  UNL1       -0.0026
      3 C         -20.3943   -8.4246  -11.4978 C.ar    1  UNL1       -0.0003
      4 C         -20.2747   -9.6409  -10.8068 C.ar    1  UNL1        0.0001
      5 C         -20.9325  -10.7783  -11.3001 C.ar    1  UNL1       -0.0003
      6 C         -21.6881  -10.7036  -12.4730 C.ar    1  UNL1       -0.0026
      7 C         -19.4914   -9.7174   -9.5515 C.ar    1  UNL1        0.0032
      8 C         -18.4790  -10.6888   -9.4581 C.ar    1  UNL1        0.0065
      9 C         -17.7658  -10.8796   -8.2634 C.ar    1  UNL1        0.0755
     10 C         -18.0800  -10.0883   -7.1500 C.ar    1  UNL1        0.0065
     11 C         -19.0742   -9.1128   -7.2318 C.ar    1  UNL1        0.0033
     12 C         -19.7759   -8.8984   -8.4286 C.ar    1  UNL1        0.0371
     13 C         -20.7662   -7.7973   -8.4717 C.ar    1  UNL1        0.1806
     14 N         -20.4454   -6.4922   -8.5591 N.ar    1  UNL1       -0.1084
     15 N         -21.6068   -5.8562   -8.6247 N.ar    1  UNL1       -0.0229
     16 N         -22.6025   -6.7288   -8.5929 N.ar    1  UNL1       -0.0464
     17 N         -22.1019   -7.9471   -8.5011 N.ar    1  UNL1       -0.2388
     18 H         -22.6620   -8.8275   -8.4986 H       1  UNL1        0.1923
     19 C         -16.7063  -11.9092   -8.1718 C.2     1  UNL1        0.3380
     20 O         -15.7440  -11.7663   -7.3696 O.2     1  UNL1       -0.2451
     21 O         -16.7628  -13.0478   -8.9715 O.3     1  UNL1       -0.4771
     22 H         -16.0431  -13.7586   -8.9165 H       1  UNL1        0.2954
     23 C         -22.6665   -9.3926  -14.3981 C.3     1  UNL1        0.1206
     24 C         -24.8682   -9.2757  -13.2289 C.2     1  UNL1        0.2262
     25 O         -24.4631   -9.0472  -12.0578 O.2     1  UNL1       -0.2749
     26 N         -24.0018   -9.9613  -14.1563 N.am    1  UNL1       -0.2673
     27 C         -26.1912   -8.7056  -13.6546 C.3     1  UNL1        0.0853
     28 C         -26.5108   -7.4433  -12.8437 C.3     1  UNL1        0.0096
     29 C         -27.1828   -5.5022  -14.3565 C.3     1  UNL1        0.0000
     30 C         -26.0592   -6.1579  -13.5535 C.3     1  UNL1        0.0005
     31 C         -24.4066  -11.1928  -14.8797 C.3     1  UNL1        0.1746
     32 C         -25.1054  -12.1728  -13.9564 C.2     1  UNL1        0.3320
     33 O         -26.1151  -12.8029  -14.3688 O.2     1  UNL1       -0.2485
     34 O         -24.5948  -12.4965  -12.6998 O.3     1  UNL1       -0.4790
     35 H         -23.7355  -12.1048  -12.3396 H       1  UNL1        0.2951
     36 C         -23.2611  -11.8043  -15.7531 C.3     1  UNL1        0.0292
     37 C         -22.8509  -13.2000  -15.2614 C.3     1  UNL1        0.0023
     38 C         -23.5428  -11.8334  -17.2651 C.3     1  UNL1        0.0023
@<TRIPOS>BOND
     1    29    30    1
     2    30    28    1
     3    28    27    1
     4    27    24    1
     5    24    25    2
     6    24    26   am
     7    26    23    1
     8    23     1    1
     9     1     2   ar
    10     2     3   ar
    11     3     4   ar
    12     4     7    1
    13     7     8   ar
    14     8     9   ar
    15     9    19    1
    16    19    20    2
    17    19    21    1
    18     9    10   ar
    19    10    11   ar
    20    11    12   ar
    21    12    13    1
    22    13    14   ar
    23    14    15   ar
    24    15    16   ar
    25    16    17   ar
    26     4     5   ar
    27     5     6   ar
    28    26    31    1
    29    31    32    1
    30    32    33    2
    31    32    34    1
    32    31    36    1
    33    36    37    1
    34    36    38    1
    35     6     1   ar
    36    12     7   ar
    37    17    13   ar
    38    21    22    1
    39    17    18    1
    40    34    35    1
@<TRIPOS>MOLECULE
*****
 38 40 0 0 0
SMALL
GASTEIGER

@<TRIPOS>ATOM
      1 C         -27.3603   -6.6927  -13.1517 C.ar    1  UNL1       -0.0023
      2 C         -28.4436   -7.1491  -13.9182 C.ar    1  UNL1       -0.0026
      3 C         -29.0275   -6.3206  -14.8797 C.ar    1  UNL1       -0.0003
      4 C         -28.5283   -5.0269  -15.0991 C.ar    1  UNL1        0.0001
      5 C         -27.4449   -4.5699  -14.3328 C.ar    1  UNL1       -0.0003
      6 C         -26.8618   -5.3983  -13.3706 C.ar    1  UNL1       -0.0026
      7 C         -29.1587   -4.1393  -16.1040 C.ar    1  UNL1        0.0032
      8 C         -28.3758   -3.6989  -17.1859 C.ar    1  UNL1        0.0065
      9 C         -28.8814   -2.7797  -18.1195 C.ar    1  UNL1        0.0755
     10 C         -30.1865   -2.2945  -17.9580 C.ar    1  UNL1        0.0065
     11 C         -30.9786   -2.7315  -16.8958 C.ar    1  UNL1        0.0033
     12 C         -30.4903   -3.6683  -15.9714 C.ar    1  UNL1        0.0371
     13 C         -31.4068   -4.1482  -14.9108 C.ar    1  UNL1        0.1806
     14 N         -31.9554   -3.3579  -13.9683 N.ar    1  UNL1       -0.1084
     15 N         -32.7411   -4.1591  -13.2623 N.ar    1  UNL1       -0.0229
     16 N         -32.6920   -5.3881  -13.7535 N.ar    1  UNL1       -0.0464
     17 N         -31.8683   -5.4046  -14.7853 N.ar    1  UNL1       -0.2388
     18 H         -31.6739   -6.2362  -15.3847 H       1  UNL1        0.1923
     19 C         -28.0480   -2.3161  -19.2516 C.2     1  UNL1        0.3380
     20 O         -27.0739   -3.0085  -19.6536 O.2     1  UNL1       -0.2451
     21 O         -28.3329   -1.1091  -19.8850 O.3     1  UNL1       -0.4771
     22 H         -27.7691   -0.7828  -20.6608 H       1  UNL1        0.2954
     23 C         -26.7685   -7.5661  -12.0766 C.3     1  UNL1        0.1206
     24 C         -24.9615   -8.4359  -13.5619 C.2     1  UNL1        0.2262
     25 O         -25.4712   -9.5459  -13.8716 O.2     1  UNL1       -0.2749
     26 N         -25.3373   -7.8063  -12.3197 N.am    1  UNL1       -0.2673
     27 C         -24.0801   -7.7465  -14.5642 C.3     1  UNL1        0.0853
     28 C         -23.0497   -8.7314  -15.1311 C.3     1  UNL1        0.0096
     29 C         -20.8437   -8.3843  -16.3645 C.3     1  UNL1        0.0000
     30 C         -21.6146   -8.1881  -15.0589 C.3     1  UNL1        0.0005
     31 C         -24.3476   -7.3812  -11.2982 C.3     1  UNL1        0.1746
     32 C         -23.5357   -6.1919  -11.7753 C.2     1  UNL1        0.3320
     33 O         -24.0392   -5.0382  -11.7312 O.2     1  UNL1       -0.2485
     34 O         -22.1978   -6.3129  -12.1489 O.3     1  UNL1       -0.4790
     35 H         -21.6968   -7.1902  -12.1172 H       1  UNL1        0.2951
     36 C         -23.5092   -8.5669  -10.7152 C.3     1  UNL1        0.0292
     37 C         -22.6632   -8.1303   -9.5104 C.3     1  UNL1        0.0023
     38 C         -24.3209   -9.8266  -10.3680 C.3     1  UNL1        0.0023
@<TRIPOS>BOND
     1    29    30    1
     2    30    28    1
     3    28    27    1
     4    27    24    1
     5    24    25    2
     6    24    26   am
     7    26    23    1
     8    23     1    1
     9     1     2   ar
    10     2     3   ar
    11     3     4   ar
    12     4     7    1
    13     7     8   ar
    14     8     9   ar
    15     9    19    1
    16    19    20    2
    17    19    21    1
    18     9    10   ar
    19    10    11   ar
    20    11    12   ar
    21    12    13    1
    22    13    14   ar
    23    14    15   ar
    24    15    16   ar
    25    16    17   ar
    26     4     5   ar
    27     5     6   ar
    28    26    31    1
    29    31    32    1
    30    32    33    2
    31    32    34    1
    32    31    36    1
    33    36    37    1
    34    36    38    1
    35     6     1   ar
    36    12     7   ar
    37    17    13   ar
    38    21    22    1
    39    17    18    1
    40    34    35    1
@<TRIPOS>MOLECULE
*****
 38 40 0 0 0
SMALL
GASTEIGER

@<TRIPOS>ATOM
      1 C         -26.9871   -6.2890  -13.4565 C.ar    1  UNL1       -0.0023
      2 C         -28.2142   -6.7019  -13.9976 C.ar    1  UNL1       -0.0026
      3 C         -28.8501   -5.9323  -14.9750 C.ar    1  UNL1       -0.0003
      4 C         -28.2618   -4.7439  -15.4363 C.ar    1  UNL1        0.0001
      5 C         -27.0344   -4.3305  -14.8954 C.ar    1  UNL1       -0.0003
      6 C         -26.3992   -5.0999  -13.9173 C.ar    1  UNL1       -0.0026
      7 C         -28.9439   -3.9157  -16.4579 C.ar    1  UNL1        0.0032
      8 C         -28.2025   -3.4969  -17.5770 C.ar    1  UNL1        0.0065
      9 C         -28.7591   -2.6306  -18.5321 C.ar    1  UNL1        0.0755
     10 C         -30.0734   -2.1769  -18.3547 C.ar    1  UNL1        0.0065
     11 C         -30.8245   -2.5935  -17.2552 C.ar    1  UNL1        0.0033
     12 C         -30.2850   -3.4781  -16.3080 C.ar    1  UNL1        0.0371
     13 C         -31.1593   -3.9411  -15.2051 C.ar    1  UNL1        0.1806
     14 N         -31.6115   -3.1503  -14.2133 N.ar    1  UNL1       -0.1084
     15 N         -32.3921   -3.9312  -13.4795 N.ar    1  UNL1       -0.0229
     16 N         -32.4325   -5.1480  -14.0007 N.ar    1  UNL1       -0.0464
     17 N         -31.6734   -5.1770  -15.0806 N.ar    1  UNL1       -0.2388
     18 H         -31.5560   -6.0012  -15.7097 H       1  UNL1        0.1923
     19 C         -27.9693   -2.1892  -19.7035 C.2     1  UNL1        0.3380
     20 O         -26.9663   -2.8515  -20.0844 O.2     1  UNL1       -0.2451
     21 O         -28.3276   -1.0364  -20.3977 O.3     1  UNL1       -0.4771
     22 H         -27.7941   -0.7256  -21.2009 H       1  UNL1        0.2954
     23 C         -26.3308   -7.0900  -12.3626 C.3     1  UNL1        0.1206
     24 C         -23.8893   -6.7617  -11.9634 C.2     1  UNL1        0.2262
     25 O         -23.8610   -5.5031  -11.9086 O.2     1  UNL1       -0.2749
     26 N         -24.9379   -7.4143  -12.7086 N.am    1  UNL1       -0.2673
     27 C         -22.9034   -7.5383  -11.1378 C.3     1  UNL1        0.0853
     28 C         -21.5106   -6.9032  -11.2381 C.3     1  UNL1        0.0096
     29 C         -20.4691   -9.2294  -11.1280 C.3     1  UNL1        0.0000
     30 C         -20.4652   -7.8665  -11.8205 C.3     1  UNL1        0.0005
     31 C         -24.6697   -8.4005  -13.7852 C.3     1  UNL1        0.1746
     32 C         -25.0123   -9.8104  -13.3422 C.2     1  UNL1        0.3320
     33 O         -24.7790  -10.1626  -12.1556 O.2     1  UNL1       -0.2485
     34 O         -25.6942  -10.7001  -14.1716 O.3     1  UNL1       -0.4790
     35 H         -26.0010  -10.4559  -15.1031 H       1  UNL1        0.2951
     36 C         -23.2587   -8.2348  -14.4412 C.3     1  UNL1        0.0292
     37 C         -22.5166   -9.5750  -14.5463 C.3     1  UNL1        0.0023
     38 C         -23.2557   -7.5159  -15.8011 C.3     1  UNL1        0.0023
@<TRIPOS>BOND
     1    29    30    1
     2    30    28    1
     3    28    27    1
     4    27    24    1
     5    24    25    2
     6    24    26   am
     7    26    23    1
     8    23     1    1
     9     1     2   ar
    10     2     3   ar
    11     3     4   ar
    12     4     7    1
    13     7     8   ar
    14     8     9   ar
    15     9    19    1
    16    19    20    2
    17    19    21    1
    18     9    10   ar
    19    10    11   ar
    20    11    12   ar
    21    12    13    1
    22    13    14   ar
    23    14    15   ar
    24    15    16   ar
    25    16    17   ar
    26     4     5   ar
    27     5     6   ar
    28    26    31    1
    29    31    32    1
    30    32    33    2
    31    32    34    1
    32    31    36    1
    33    36    37    1
    34    36    38    1
    35     6     1   ar
    36    12     7   ar
    37    17    13   ar
    38    21    22    1
    39    17    18    1
    40    34    35    1
@<TRIPOS>MOLECULE
*****
 38 40 0 0 0
SMALL
GASTEIGER

@<TRIPOS>ATOM
      1 C         -26.0427   -6.7818  -13.0876 C.ar    1  UNL1       -0.0023
      2 C         -25.7795   -5.4117  -13.2389 C.ar    1  UNL1       -0.0026
      3 C         -26.6540   -4.6003  -13.9659 C.ar    1  UNL1       -0.0003
      4 C         -27.8131   -5.1440  -14.5420 C.ar    1  UNL1        0.0001
      5 C         -28.0769   -6.5142  -14.3910 C.ar    1  UNL1       -0.0003
      6 C         -27.2016   -7.3257  -13.6647 C.ar    1  UNL1       -0.0026
      7 C         -28.7315   -4.2896  -15.3305 C.ar    1  UNL1        0.0032
      8 C         -29.9037   -3.8239  -14.7089 C.ar    1  UNL1        0.0065
      9 C         -30.8633   -3.0922  -15.4275 C.ar    1  UNL1        0.0755
     10 C         -30.6427   -2.8328  -16.7871 C.ar    1  UNL1        0.0065
     11 C         -29.4787   -3.2788  -17.4139 C.ar    1  UNL1        0.0033
     12 C         -28.5027   -3.9901  -16.6981 C.ar    1  UNL1        0.0371
     13 C         -27.2560   -4.3698  -17.4027 C.ar    1  UNL1        0.1806
     14 N         -27.0801   -4.2784  -18.7348 N.ar    1  UNL1       -0.1084
     15 N         -25.8276   -4.6596  -18.9434 N.ar    1  UNL1       -0.0229
     16 N         -25.2489   -4.9610  -17.7908 N.ar    1  UNL1       -0.0464
     17 N         -26.1203   -4.7842  -16.8147 N.ar    1  UNL1       -0.2388
     18 H         -25.9172   -4.9097  -15.7989 H       1  UNL1        0.1923
     19 C         -32.0977   -2.6116  -14.7671 C.2     1  UNL1        0.3380
     20 O         -33.2298   -2.8954  -15.2442 O.2     1  UNL1       -0.2451
     21 O         -32.0203   -1.8407  -13.6099 O.3     1  UNL1       -0.4771
     22 H         -32.8589   -1.5070  -13.1499 H       1  UNL1        0.2954
     23 C         -25.0701   -7.6660  -12.3520 C.3     1  UNL1        0.1206
     24 C         -23.7824   -8.4920  -14.3237 C.2     1  UNL1        0.2262
     25 O         -24.1932   -9.6830  -14.3489 O.2     1  UNL1       -0.2749
     26 N         -23.7939   -7.7654  -13.0777 N.am    1  UNL1       -0.2673
     27 C         -23.4199   -7.8304  -15.6228 C.3     1  UNL1        0.0853
     28 C         -22.8599   -8.8651  -16.6072 C.3     1  UNL1        0.0096
     29 C         -20.3983   -8.2205  -16.4250 C.3     1  UNL1        0.0000
     30 C         -21.4410   -9.3224  -16.2362 C.3     1  UNL1        0.0005
     31 C         -22.5876   -7.1080  -12.5152 C.3     1  UNL1        0.1746
     32 C         -21.3950   -8.0455  -12.5164 C.2     1  UNL1        0.3320
     33 O         -21.5694   -9.2727  -12.2932 O.2     1  UNL1       -0.2485
     34 O         -20.1188   -7.6167  -12.8797 O.3     1  UNL1       -0.4790
     35 H         -19.9198   -6.6680  -13.1658 H       1  UNL1        0.2951
     36 C         -22.8556   -6.3758  -11.1585 C.3     1  UNL1        0.0292
     37 C         -22.0994   -7.0338   -9.9951 C.3     1  UNL1        0.0023
     38 C         -22.5925   -4.8603  -11.1758 C.3     1  UNL1        0.0023
@<TRIPOS>BOND
     1    29    30    1
     2    30    28    1
     3    28    27    1
     4    27    24    1
     5    24    25    2
     6    24    26   am
     7    26    23    1
     8    23     1    1
     9     1     2   ar
    10     2     3   ar
    11     3     4   ar
    12     4     7    1
    13     7     8   ar
    14     8     9   ar
    15     9    19    1
    16    19    20    2
    17    19    21    1
    18     9    10   ar
    19    10    11   ar
    20    11    12   ar
    21    12    13    1
    22    13    14   ar
    23    14    15   ar
    24    15    16   ar
    25    16    17   ar
    26     4     5   ar
    27     5     6   ar
    28    26    31    1
    29    31    32    1
    30    32    33    2
    31    32    34    1
    32    31    36    1
    33    36    37    1
    34    36    38    1
    35     6     1   ar
    36    12     7   ar
    37    17    13   ar
    38    21    22    1
    39    17    18    1
    40    34    35    1
@<TRIPOS>MOLECULE
*****
 38 40 0 0 0
SMALL
GASTEIGER

@<TRIPOS>ATOM
      1 C         -22.9910  -10.2840  -12.6568 C.ar    1  UNL1       -0.0023
      2 C         -23.1629  -10.8795  -11.3978 C.ar    1  UNL1       -0.0026
      3 C         -22.1667  -10.7736  -10.4241 C.ar    1  UNL1       -0.0003
      4 C         -20.9879  -10.0588  -10.6898 C.ar    1  UNL1        0.0001
      5 C         -20.8154   -9.4630  -11.9488 C.ar    1  UNL1       -0.0003
      6 C         -21.8114   -9.5699  -12.9227 C.ar    1  UNL1       -0.0026
      7 C         -19.9214   -9.9623   -9.6660 C.ar    1  UNL1        0.0032
      8 C         -18.9050  -10.9340   -9.6716 C.ar    1  UNL1        0.0065
      9 C         -17.9197  -10.9579   -8.6711 C.ar    1  UNL1        0.0755
     10 C         -17.9626   -9.9973   -7.6513 C.ar    1  UNL1        0.0065
     11 C         -18.9586   -9.0202   -7.6396 C.ar    1  UNL1        0.0033
     12 C         -19.9335   -8.9737   -8.6486 C.ar    1  UNL1        0.0371
     13 C         -20.9177   -7.8666   -8.6203 C.ar    1  UNL1        0.1806
     14 N         -20.5908   -6.5606   -8.6518 N.ar    1  UNL1       -0.1084
     15 N         -21.7493   -5.9162   -8.6647 N.ar    1  UNL1       -0.0229
     16 N         -22.7495   -6.7842   -8.6552 N.ar    1  UNL1       -0.0464
     17 N         -22.2546   -8.0081   -8.6311 N.ar    1  UNL1       -0.2388
     18 H         -22.8198   -8.8847   -8.6596 H       1  UNL1        0.1923
     19 C         -16.8574  -11.9885   -8.6808 C.2     1  UNL1        0.3380
     20 O         -16.9737  -13.0196   -9.3973 O.2     1  UNL1       -0.2451
     21 O         -15.7169  -11.8286   -7.8979 O.3     1  UNL1       -0.4771
     22 H         -14.9837  -12.5277   -7.8974 H       1  UNL1        0.2954
     23 C         -24.0408  -10.4471  -13.7245 C.3     1  UNL1        0.1206
     24 C         -23.6397  -11.2963  -16.0366 C.2     1  UNL1        0.2262
     25 O         -24.6282  -10.7741  -16.6180 O.2     1  UNL1       -0.2749
     26 N         -23.7124  -11.5662  -14.6215 N.am    1  UNL1       -0.2673
     27 C         -22.3715  -11.4956  -16.8167 C.3     1  UNL1        0.0853
     28 C         -21.3236  -10.4552  -16.4010 C.3     1  UNL1        0.0096
     29 C         -20.7386   -7.9732  -16.3267 C.3     1  UNL1        0.0000
     30 C         -21.8376   -9.0143  -16.5406 C.3     1  UNL1        0.0005
     31 C         -23.4548  -12.9081  -14.0412 C.3     1  UNL1        0.1746
     32 C         -22.0327  -13.3634  -14.3092 C.2     1  UNL1        0.3320
     33 O         -21.0750  -12.7778  -13.7379 O.2     1  UNL1       -0.2485
     34 O         -21.7510  -14.4942  -15.0749 O.3     1  UNL1       -0.4790
     35 H         -22.4717  -15.0719  -15.4853 H       1  UNL1        0.2951
     36 C         -24.5640  -13.9566  -14.3861 C.3     1  UNL1        0.0292
     37 C         -25.9349  -13.5409  -13.8329 C.3     1  UNL1        0.0023
     38 C         -24.6775  -14.3146  -15.8778 C.3     1  UNL1        0.0023
@<TRIPOS>BOND
     1    29    30    1
     2    30    28    1
     3    28    27    1
     4    27    24    1
     5    24    25    2
     6    24    26   am
     7    26    23    1
     8    23     1    1
     9     1     2   ar
    10     2     3   ar
    11     3     4   ar
    12     4     7    1
    13     7     8   ar
    14     8     9   ar
    15     9    19    1
    16    19    20    2
    17    19    21    1
    18     9    10   ar
    19    10    11   ar
    20    11    12   ar
    21    12    13    1
    22    13    14   ar
    23    14    15   ar
    24    15    16   ar
    25    16    17   ar
    26     4     5   ar
    27     5     6   ar
    28    26    31    1
    29    31    32    1
    30    32    33    2
    31    32    34    1
    32    31    36    1
    33    36    37    1
    34    36    38    1
    35     6     1   ar
    36    12     7   ar
    37    17    13   ar
    38    21    22    1
    39    17    18    1
    40    34    35    1
@<TRIPOS>MOLECULE
*****
 38 40 0 0 0
SMALL
GASTEIGER

@<TRIPOS>ATOM
      1 C         -26.3870   -7.2645  -12.7691 C.ar    1  UNL1       -0.0023
      2 C         -26.0407   -5.9049  -12.7925 C.ar    1  UNL1       -0.0026
      3 C         -26.7726   -5.0025  -13.5683 C.ar    1  UNL1       -0.0003
      4 C         -27.8712   -5.4438  -14.3229 C.ar    1  UNL1        0.0001
      5 C         -28.2181   -6.8036  -14.2999 C.ar    1  UNL1       -0.0003
      6 C         -27.4853   -7.7059  -13.5247 C.ar    1  UNL1       -0.0026
      7 C         -28.6364   -4.4925  -15.1622 C.ar    1  UNL1        0.0032
      8 C         -29.8307   -3.9611  -14.6439 C.ar    1  UNL1        0.0065
      9 C         -30.6531   -3.1314  -15.4235 C.ar    1  UNL1        0.0755
     10 C         -30.2717   -2.8395  -16.7403 C.ar    1  UNL1        0.0065
     11 C         -29.0836   -3.3505  -17.2637 C.ar    1  UNL1        0.0033
     12 C         -28.2432   -4.1609  -16.4843 C.ar    1  UNL1        0.0371
     13 C         -26.9599   -4.6093  -17.0736 C.ar    1  UNL1        0.1806
     14 N         -26.6409   -4.4889  -18.3765 N.ar    1  UNL1       -0.1084
     15 N         -25.4035   -4.9550  -18.4722 N.ar    1  UNL1       -0.0229
     16 N         -24.9700   -5.3348  -17.2798 N.ar    1  UNL1       -0.0464
     17 N         -25.9232   -5.1250  -16.3905 N.ar    1  UNL1       -0.2388
     18 H         -25.8358   -5.2973  -15.3651 H       1  UNL1        0.1923
     19 C         -31.9121   -2.5819  -14.8723 C.2     1  UNL1        0.3380
     20 O         -33.0099   -2.7892  -15.4568 O.2     1  UNL1       -0.2451
     21 O         -31.8961   -1.8299  -13.7003 O.3     1  UNL1       -0.4771
     22 H         -32.7520   -1.4494  -13.3144 H       1  UNL1        0.2954
     23 C         -25.5626   -8.2454  -11.9772 C.3     1  UNL1        0.1206
     24 C         -24.1156   -8.6618  -13.9674 C.2     1  UNL1        0.2262
     25 O         -24.7188   -9.6568  -14.4512 O.2     1  UNL1       -0.2749
     26 N         -24.2169   -8.3911  -12.5543 N.am    1  UNL1       -0.2673
     27 C         -23.4208   -7.7176  -14.9068 C.3     1  UNL1        0.0853
     28 C         -23.0460   -8.4418  -16.2061 C.3     1  UNL1        0.0096
     29 C         -20.5167   -8.1760  -16.4061 C.3     1  UNL1        0.0000
     30 C         -21.6758   -9.1312  -16.1213 C.3     1  UNL1        0.0005
     31 C         -23.0310   -8.2386  -11.6744 C.3     1  UNL1        0.1746
     32 C         -22.8457   -6.7969  -11.2402 C.2     1  UNL1        0.3320
     33 O         -23.0208   -5.8696  -12.0744 O.2     1  UNL1       -0.2485
     34 O         -22.6069   -6.4507   -9.9108 O.3     1  UNL1       -0.4790
     35 H         -22.5506   -7.1337   -9.1679 H       1  UNL1        0.2951
     36 C         -21.7469   -8.9330  -12.2377 C.3     1  UNL1        0.0292
     37 C         -20.5227   -8.0080  -12.1742 C.3     1  UNL1        0.0023
     38 C         -21.4173  -10.2971  -11.6079 C.3     1  UNL1        0.0023
@<TRIPOS>BOND
     1    29    30    1
     2    30    28    1
     3    28    27    1
     4    27    24    1
     5    24    25    2
     6    24    26   am
     7    26    23    1
     8    23     1    1
     9     1     2   ar
    10     2     3   ar
    11     3     4   ar
    12     4     7    1
    13     7     8   ar
    14     8     9   ar
    15     9    19    1
    16    19    20    2
    17    19    21    1
    18     9    10   ar
    19    10    11   ar
    20    11    12   ar
    21    12    13    1
    22    13    14   ar
    23    14    15   ar
    24    15    16   ar
    25    16    17   ar
    26     4     5   ar
    27     5     6   ar
    28    26    31    1
    29    31    32    1
    30    32    33    2
    31    32    34    1
    32    31    36    1
    33    36    37    1
    34    36    38    1
    35     6     1   ar
    36    12     7   ar
    37    17    13   ar
    38    21    22    1
    39    17    18    1
    40    34    35    1
