@<TRIPOS>MOLECULE
*****
 36 40 0 0 0
SMALL
GASTEIGER

@<TRIPOS>ATOM
      1 N         -24.5851   -8.7995  -12.4401 N.3     1  UNL1       -0.2679
      2 C         -24.0970   -7.5429  -13.1185 C.3     1  UNL1        0.0978
      3 C         -23.4290   -6.6108  -12.0860 C.3     1  UNL1        0.0224
      4 C         -22.0684   -7.1741  -11.6584 C.3     1  UNL1        0.0065
      5 C         -21.0977   -7.1807  -12.8390 C.3     1  UNL1        0.0277
      6 C         -21.7244   -7.7074  -14.1059 C.ar    1  UNL1       -0.0073
      7 C         -20.8985   -7.9952  -15.2010 C.ar    1  UNL1       -0.0015
      8 C         -21.4576   -8.3178  -16.4366 C.ar    1  UNL1        0.0203
      9 C         -22.8441   -8.3278  -16.5769 C.ar    1  UNL1        0.0985
     10 N         -23.6381   -8.0533  -15.5096 N.ar    1  UNL1       -0.2471
     11 C         -23.1286   -7.7598  -14.2790 C.ar    1  UNL1        0.0695
     12 C         -25.3028   -8.4393  -11.1732 C.3     1  UNL1        0.0886
     13 C         -19.7628   -9.8140   -9.9558 C.ar    1  UNL1       -0.0003
     14 C         -20.2510  -10.5817  -11.0193 C.ar    1  UNL1       -0.0003
     15 C         -21.6264  -10.7974  -11.1559 C.ar    1  UNL1       -0.0045
     16 C         -22.5168  -10.2251  -10.2360 C.ar    1  UNL1       -0.0234
     17 C         -22.0280   -9.4655   -9.1702 C.ar    1  UNL1       -0.0103
     18 C         -20.6489   -9.2584   -9.0265 C.ar    1  UNL1       -0.0032
     19 C         -23.0337   -8.8918   -8.2157 C.3     1  UNL1        0.0953
     20 N         -24.1466   -8.2969   -8.9705 N.3     1  UNL1       -0.2934
     21 C         -24.8301   -9.2278   -9.9169 C.3     1  UNL1        0.0748
     22 C         -23.9922  -10.4901  -10.2855 C.3     1  UNL1        0.0432
     23 H         -23.7630   -7.4635   -9.4771 H       1  UNL1        0.1236
     24 C         -25.4511   -9.6441  -13.3170 C.3     1  UNL1        0.0725
     25 C         -24.8334  -11.0058  -13.6751 C.3     1  UNL1        0.0188
     26 C         -25.7430  -11.8960  -14.5444 C.3     1  UNL1        0.0185
     27 C         -25.6648  -13.3807  -14.1681 C.3     1  UNL1        0.0686
     28 N         -25.2558  -14.1689  -15.3374 N.3     1  UNL1       -0.2975
     29 H         -26.0357  -14.8047  -15.6215 H       1  UNL1        0.1232
     30 C         -24.0226  -14.9391  -15.0936 C.3     1  UNL1        0.0685
     31 C         -22.7594  -14.3302  -15.7616 C.3     1  UNL1        0.0158
     32 C         -23.0958  -13.0200  -16.5279 C.3     1  UNL1        0.0014
     33 C         -21.8835  -12.0884  -16.6287 C.3     1  UNL1        0.0000
     34 C         -21.3962  -11.6440  -15.2360 C.3     1  UNL1        0.0000
     35 C         -21.6371  -12.6998  -14.1384 C.3     1  UNL1        0.0000
     36 C         -21.6330  -14.1218  -14.7108 C.3     1  UNL1        0.0014
@<TRIPOS>BOND
     1    13    14   ar
     2    14    15   ar
     3    15    16   ar
     4    16    17   ar
     5    17    18   ar
     6    17    19    1
     7    19    20    1
     8    20    21    1
     9    21    12    1
    10    12     1    1
    11     1    24    1
    12    24    25    1
    13    25    26    1
    14    26    27    1
    15    27    28    1
    16    28    30    1
    17    30    31    1
    18    31    32    1
    19    32    33    1
    20    33    34    1
    21    34    35    1
    22    35    36    1
    23     1     2    1
    24     2     3    1
    25     3     4    1
    26     4     5    1
    27     5     6    1
    28     6     7   ar
    29     7     8   ar
    30     8     9   ar
    31     9    10   ar
    32    10    11   ar
    33    21    22    1
    34    18    13   ar
    35    36    31    1
    36    11     2    1
    37    22    16    1
    38    11     6   ar
    39    20    23    1
    40    28    29    1
@<TRIPOS>MOLECULE
*****
 36 40 0 0 0
SMALL
GASTEIGER

@<TRIPOS>ATOM
      1 N         -22.9617   -8.3127  -13.0543 N.3     1  UNL1       -0.2679
      2 C         -21.5213   -8.7621  -13.0869 C.3     1  UNL1        0.0978
      3 C         -20.7466   -8.1379  -11.9073 C.3     1  UNL1        0.0224
      4 C         -21.1558   -8.8024  -10.5873 C.3     1  UNL1        0.0065
      5 C         -20.7346  -10.2716  -10.5755 C.3     1  UNL1        0.0277
      6 C         -21.0606  -10.9819  -11.8655 C.ar    1  UNL1       -0.0073
      7 C         -20.9528  -12.3783  -11.9157 C.ar    1  UNL1       -0.0015
      8 C         -21.0785  -13.0492  -13.1313 C.ar    1  UNL1        0.0203
      9 C         -21.2885  -12.3155  -14.2975 C.ar    1  UNL1        0.0985
     10 N         -21.3975  -10.9628  -14.2401 N.ar    1  UNL1       -0.2471
     11 C         -21.3069  -10.2738  -13.0666 C.ar    1  UNL1        0.0695
     12 C         -23.0447   -6.9368  -12.4628 C.3     1  UNL1        0.0886
     13 C         -28.6428   -7.2200  -14.0894 C.ar    1  UNL1       -0.0003
     14 C         -28.0291   -6.0671  -14.5922 C.ar    1  UNL1       -0.0003
     15 C         -26.9036   -5.5356  -13.9536 C.ar    1  UNL1       -0.0045
     16 C         -26.3791   -6.1728  -12.8199 C.ar    1  UNL1       -0.0234
     17 C         -26.9971   -7.3191  -12.3140 C.ar    1  UNL1       -0.0103
     18 C         -28.1318   -7.8458  -12.9471 C.ar    1  UNL1       -0.0032
     19 C         -26.3921   -7.9446  -11.0916 C.3     1  UNL1        0.0953
     20 N         -24.9317   -8.0183  -11.2467 N.3     1  UNL1       -0.2934
     21 C         -24.2642   -6.7112  -11.5218 C.3     1  UNL1        0.0748
     22 C         -25.2264   -5.6028  -12.0480 C.3     1  UNL1        0.0432
     23 H         -24.7388   -8.7056  -12.0139 H       1  UNL1        0.1236
     24 C         -23.6220   -8.3535  -14.3939 C.3     1  UNL1        0.0725
     25 C         -22.7464   -7.8115  -15.5357 C.3     1  UNL1        0.0188
     26 C         -23.1007   -8.3845  -16.9218 C.3     1  UNL1        0.0185
     27 C         -22.6588   -9.8425  -17.0983 C.3     1  UNL1        0.0686
     28 N         -23.8338  -10.6947  -17.3194 N.3     1  UNL1       -0.2975
     29 H         -24.6846  -10.2251  -16.9337 H       1  UNL1        0.1232
     30 C         -23.6731  -12.0379  -16.7334 C.3     1  UNL1        0.0685
     31 C         -24.9346  -12.5528  -15.9876 C.3     1  UNL1        0.0158
     32 C         -24.7156  -13.9827  -15.4181 C.3     1  UNL1        0.0014
     33 C         -25.5996  -14.2539  -14.1964 C.3     1  UNL1        0.0000
     34 C         -25.2741  -13.2895  -13.0393 C.3     1  UNL1        0.0000
     35 C         -24.7883  -11.9057  -13.5154 C.3     1  UNL1        0.0000
     36 C         -25.3681  -11.5438  -14.8875 C.3     1  UNL1        0.0014
@<TRIPOS>BOND
     1    13    14   ar
     2    14    15   ar
     3    15    16   ar
     4    16    17   ar
     5    17    18   ar
     6    17    19    1
     7    19    20    1
     8    20    21    1
     9    21    12    1
    10    12     1    1
    11     1    24    1
    12    24    25    1
    13    25    26    1
    14    26    27    1
    15    27    28    1
    16    28    30    1
    17    30    31    1
    18    31    32    1
    19    32    33    1
    20    33    34    1
    21    34    35    1
    22    35    36    1
    23     1     2    1
    24     2     3    1
    25     3     4    1
    26     4     5    1
    27     5     6    1
    28     6     7   ar
    29     7     8   ar
    30     8     9   ar
    31     9    10   ar
    32    10    11   ar
    33    21    22    1
    34    18    13   ar
    35    36    31    1
    36    11     2    1
    37    22    16    1
    38    11     6   ar
    39    20    23    1
    40    28    29    1
@<TRIPOS>MOLECULE
*****
 36 40 0 0 0
SMALL
GASTEIGER

@<TRIPOS>ATOM
      1 N         -22.1744  -10.3881  -11.7367 N.3     1  UNL1       -0.2679
      2 C         -23.6593  -10.4588  -11.4765 C.3     1  UNL1        0.0978
      3 C         -24.2307   -9.0378  -11.2887 C.3     1  UNL1        0.0224
      4 C         -24.2764   -8.2979  -12.6311 C.3     1  UNL1        0.0065
      5 C         -25.2634   -8.9752  -13.5813 C.3     1  UNL1        0.0277
      6 C         -25.1216  -10.4768  -13.5961 C.ar    1  UNL1       -0.0073
      7 C         -25.7885  -11.2103  -14.5868 C.ar    1  UNL1       -0.0015
      8 C         -25.8197  -12.6028  -14.5282 C.ar    1  UNL1        0.0203
      9 C         -25.2018  -13.2554  -13.4631 C.ar    1  UNL1        0.0985
     10 N         -24.5527  -12.5379  -12.5097 N.ar    1  UNL1       -0.2471
     11 C         -24.4776  -11.1766  -12.5473 C.ar    1  UNL1        0.0695
     12 C         -21.4288  -10.8209  -10.5092 C.3     1  UNL1        0.0886
     13 C         -22.0890   -5.0220  -10.5403 C.ar    1  UNL1       -0.0003
     14 C         -21.8960   -5.5146  -11.8360 C.ar    1  UNL1       -0.0003
     15 C         -21.2357   -6.7321  -12.0329 C.ar    1  UNL1       -0.0045
     16 C         -20.7856   -7.4681  -10.9274 C.ar    1  UNL1       -0.0234
     17 C         -20.9716   -6.9716   -9.6348 C.ar    1  UNL1       -0.0103
     18 C         -21.6234   -5.7462   -9.4375 C.ar    1  UNL1       -0.0032
     19 C         -20.4556   -7.8032   -8.4973 C.3     1  UNL1        0.0953
     20 N         -20.8309   -9.2098   -8.7047 N.3     1  UNL1       -0.2934
     21 C         -20.3737   -9.7957   -9.9998 C.3     1  UNL1        0.0748
     22 C         -20.0005   -8.7367  -11.0817 C.3     1  UNL1        0.0432
     23 H         -21.8737   -9.2654   -8.6163 H       1  UNL1        0.1236
     24 C         -21.7458  -11.1861  -12.9249 C.3     1  UNL1        0.0725
     25 C         -21.0398  -12.5043  -12.5670 C.3     1  UNL1        0.0188
     26 C         -20.6437  -13.3539  -13.7903 C.3     1  UNL1        0.0185
     27 C         -21.8156  -13.6116  -14.7455 C.3     1  UNL1        0.0686
     28 N         -21.6150  -12.8619  -15.9919 N.3     1  UNL1       -0.2975
     29 H         -20.7137  -12.3343  -15.9421 H       1  UNL1        0.1232
     30 C         -22.7342  -11.9484  -16.2854 C.3     1  UNL1        0.0685
     31 C         -22.3061  -10.6434  -17.0109 C.3     1  UNL1        0.0158
     32 C         -23.5059   -9.6709  -17.1892 C.3     1  UNL1        0.0014
     33 C         -23.0508   -8.2107  -17.2794 C.3     1  UNL1        0.0000
     34 C         -22.3375   -7.7614  -15.9894 C.3     1  UNL1        0.0000
     35 C         -21.5815   -8.9026  -15.2798 C.3     1  UNL1        0.0000
     36 C         -21.1139   -9.9738  -16.2716 C.3     1  UNL1        0.0014
@<TRIPOS>BOND
     1    13    14   ar
     2    14    15   ar
     3    15    16   ar
     4    16    17   ar
     5    17    18   ar
     6    17    19    1
     7    19    20    1
     8    20    21    1
     9    21    12    1
    10    12     1    1
    11     1    24    1
    12    24    25    1
    13    25    26    1
    14    26    27    1
    15    27    28    1
    16    28    30    1
    17    30    31    1
    18    31    32    1
    19    32    33    1
    20    33    34    1
    21    34    35    1
    22    35    36    1
    23     1     2    1
    24     2     3    1
    25     3     4    1
    26     4     5    1
    27     5     6    1
    28     6     7   ar
    29     7     8   ar
    30     8     9   ar
    31     9    10   ar
    32    10    11   ar
    33    21    22    1
    34    18    13   ar
    35    36    31    1
    36    11     2    1
    37    22    16    1
    38    11     6   ar
    39    20    23    1
    40    28    29    1
@<TRIPOS>MOLECULE
*****
 36 40 0 0 0
SMALL
GASTEIGER

@<TRIPOS>ATOM
      1 N         -22.9921   -9.2516  -13.7041 N.3     1  UNL1       -0.2679
      2 C         -23.1463   -9.6159  -12.2477 C.3     1  UNL1        0.0978
      3 C         -23.1549  -11.1505  -12.0853 C.3     1  UNL1        0.0224
      4 C         -21.7486  -11.7198  -12.3079 C.3     1  UNL1        0.0065
      5 C         -20.7961  -11.2337  -11.2160 C.3     1  UNL1        0.0277
      6 C         -20.9349   -9.7581  -10.9359 C.ar    1  UNL1       -0.0073
      7 C         -19.9715   -9.1268  -10.1374 C.ar    1  UNL1       -0.0015
      8 C         -20.1597   -7.8106   -9.7182 C.ar    1  UNL1        0.0203
      9 C         -21.3252   -7.1384  -10.0815 C.ar    1  UNL1        0.0985
     10 N         -22.2518   -7.7550  -10.8603 N.ar    1  UNL1       -0.2471
     11 C         -22.0906   -9.0318  -11.3119 C.ar    1  UNL1        0.0695
     12 C         -24.2687   -8.6463  -14.2078 C.3     1  UNL1        0.0886
     13 C         -28.8393   -5.1385  -15.1400 C.ar    1  UNL1       -0.0003
     14 C         -27.6330   -4.4679  -15.3726 C.ar    1  UNL1       -0.0003
     15 C         -26.4562   -4.9058  -14.7559 C.ar    1  UNL1       -0.0045
     16 C         -26.4842   -6.0313  -13.9198 C.ar    1  UNL1       -0.0234
     17 C         -27.6902   -6.6952  -13.6820 C.ar    1  UNL1       -0.0103
     18 C         -28.8719   -6.2500  -14.2910 C.ar    1  UNL1       -0.0032
     19 C         -27.6523   -7.8849  -12.7682 C.3     1  UNL1        0.0953
     20 N         -26.5076   -8.7391  -13.1179 N.3     1  UNL1       -0.2934
     21 C         -25.1828   -8.0506  -13.0973 C.3     1  UNL1        0.0748
     22 C         -25.2718   -6.4955  -13.1688 C.3     1  UNL1        0.0432
     23 H         -26.7043   -9.1435  -14.0645 H       1  UNL1        0.1236
     24 C         -21.8361   -8.3416  -13.9646 C.3     1  UNL1        0.0725
     25 C         -21.7166   -7.8917  -15.4300 C.3     1  UNL1        0.0188
     26 C         -20.8493   -8.8214  -16.3010 C.3     1  UNL1        0.0185
     27 C         -21.3593  -10.2676  -16.3253 C.3     1  UNL1        0.0686
     28 N         -22.6170  -10.3385  -17.0794 N.3     1  UNL1       -0.2975
     29 H         -23.2925   -9.6361  -16.7007 H       1  UNL1        0.1232
     30 C         -23.2089  -11.6885  -17.0611 C.3     1  UNL1        0.0685
     31 C         -23.6033  -12.1821  -15.6422 C.3     1  UNL1        0.0158
     32 C         -25.1248  -12.0013  -15.3787 C.3     1  UNL1        0.0014
     33 C         -25.6506  -13.0055  -14.3477 C.3     1  UNL1        0.0000
     34 C         -25.4813  -14.4570  -14.8368 C.3     1  UNL1        0.0000
     35 C         -24.2541  -14.6554  -15.7490 C.3     1  UNL1        0.0000
     36 C         -23.1419  -13.6509  -15.4273 C.3     1  UNL1        0.0014
@<TRIPOS>BOND
     1    13    14   ar
     2    14    15   ar
     3    15    16   ar
     4    16    17   ar
     5    17    18   ar
     6    17    19    1
     7    19    20    1
     8    20    21    1
     9    21    12    1
    10    12     1    1
    11     1    24    1
    12    24    25    1
    13    25    26    1
    14    26    27    1
    15    27    28    1
    16    28    30    1
    17    30    31    1
    18    31    32    1
    19    32    33    1
    20    33    34    1
    21    34    35    1
    22    35    36    1
    23     1     2    1
    24     2     3    1
    25     3     4    1
    26     4     5    1
    27     5     6    1
    28     6     7   ar
    29     7     8   ar
    30     8     9   ar
    31     9    10   ar
    32    10    11   ar
    33    21    22    1
    34    18    13   ar
    35    36    31    1
    36    11     2    1
    37    22    16    1
    38    11     6   ar
    39    20    23    1
    40    28    29    1
@<TRIPOS>MOLECULE
*****
 36 40 0 0 0
SMALL
GASTEIGER

@<TRIPOS>ATOM
      1 N         -22.6654   -9.6970  -12.3888 N.3     1  UNL1       -0.2679
      2 C         -24.0371  -10.1799  -11.9851 C.3     1  UNL1        0.0978
      3 C         -24.0281  -10.6192  -10.5058 C.3     1  UNL1        0.0224
      4 C         -23.9445   -9.3958   -9.5851 C.3     1  UNL1        0.0065
      5 C         -25.2061   -8.5427   -9.7140 C.3     1  UNL1        0.0277
      6 C         -25.6233   -8.3320  -11.1481 C.ar    1  UNL1       -0.0073
      7 C         -26.6135   -7.3819  -11.4328 C.ar    1  UNL1       -0.0015
      8 C         -27.1433   -7.2833  -12.7185 C.ar    1  UNL1        0.0203
      9 C         -26.6953   -8.1540  -13.7101 C.ar    1  UNL1        0.0985
     10 N         -25.7314   -9.0685  -13.4281 N.ar    1  UNL1       -0.2471
     11 C         -25.1702   -9.1771  -12.1898 C.ar    1  UNL1        0.0695
     12 C         -21.6201  -10.4973  -11.6700 C.3     1  UNL1        0.0886
     13 C         -22.1272   -4.9948   -9.7913 C.ar    1  UNL1       -0.0003
     14 C         -22.1706   -5.0567  -11.1889 C.ar    1  UNL1       -0.0003
     15 C         -21.5849   -6.1340  -11.8622 C.ar    1  UNL1       -0.0045
     16 C         -20.9719   -7.1626  -11.1324 C.ar    1  UNL1       -0.0234
     17 C         -20.9222   -7.0960   -9.7378 C.ar    1  UNL1       -0.0103
     18 C         -21.4992   -6.0110   -9.0630 C.ar    1  UNL1       -0.0032
     19 C         -20.2413   -8.2234   -9.0188 C.3     1  UNL1        0.0953
     20 N         -20.6823   -9.5070   -9.5846 N.3     1  UNL1       -0.2934
     21 C         -20.4677   -9.6501  -11.0553 C.3     1  UNL1        0.0748
     22 C         -20.2574   -8.2981  -11.8030 C.3     1  UNL1        0.0432
     23 H         -21.6959   -9.6173   -9.3420 H       1  UNL1        0.1236
     24 C         -22.4384   -9.7345  -13.8650 C.3     1  UNL1        0.0725
     25 C         -22.6266   -8.3750  -14.5580 C.3     1  UNL1        0.0188
     26 C         -22.8671   -8.4752  -16.0770 C.3     1  UNL1        0.0185
     27 C         -22.3933   -9.8069  -16.6721 C.3     1  UNL1        0.0686
     28 N         -23.4730  -10.4095  -17.4640 N.3     1  UNL1       -0.2975
     29 H         -24.3803   -9.9460  -17.2291 H       1  UNL1        0.1232
     30 C         -23.5698  -11.8672  -17.2663 C.3     1  UNL1        0.0685
     31 C         -23.7809  -12.2876  -15.7859 C.3     1  UNL1        0.0158
     32 C         -25.2267  -11.9768  -15.3062 C.3     1  UNL1        0.0014
     33 C         -25.6648  -12.9060  -14.1695 C.3     1  UNL1        0.0000
     34 C         -25.6824  -14.3795  -14.6203 C.3     1  UNL1        0.0000
     35 C         -24.6262  -14.7020  -15.6964 C.3     1  UNL1        0.0000
     36 C         -23.4051  -13.7823  -15.5841 C.3     1  UNL1        0.0014
@<TRIPOS>BOND
     1    13    14   ar
     2    14    15   ar
     3    15    16   ar
     4    16    17   ar
     5    17    18   ar
     6    17    19    1
     7    19    20    1
     8    20    21    1
     9    21    12    1
    10    12     1    1
    11     1    24    1
    12    24    25    1
    13    25    26    1
    14    26    27    1
    15    27    28    1
    16    28    30    1
    17    30    31    1
    18    31    32    1
    19    32    33    1
    20    33    34    1
    21    34    35    1
    22    35    36    1
    23     1     2    1
    24     2     3    1
    25     3     4    1
    26     4     5    1
    27     5     6    1
    28     6     7   ar
    29     7     8   ar
    30     8     9   ar
    31     9    10   ar
    32    10    11   ar
    33    21    22    1
    34    18    13   ar
    35    36    31    1
    36    11     2    1
    37    22    16    1
    38    11     6   ar
    39    20    23    1
    40    28    29    1
@<TRIPOS>MOLECULE
*****
 36 40 0 0 0
SMALL
GASTEIGER

@<TRIPOS>ATOM
      1 N         -24.3891   -9.2819  -12.7349 N.3     1  UNL1       -0.2679
      2 C         -23.9703   -8.0371  -13.4785 C.3     1  UNL1        0.0978
      3 C         -25.2111   -7.3250  -14.0568 C.3     1  UNL1        0.0224
      4 C         -26.0135   -6.6536  -12.9357 C.3     1  UNL1        0.0065
      5 C         -25.2005   -5.5281  -12.2968 C.3     1  UNL1        0.0277
      6 C         -23.7733   -5.9271  -12.0155 C.ar    1  UNL1       -0.0073
      7 C         -22.9800   -5.0889  -11.2204 C.ar    1  UNL1       -0.0015
      8 C         -21.6151   -5.3371  -11.0826 C.ar    1  UNL1        0.0203
      9 C         -21.0447   -6.4121  -11.7619 C.ar    1  UNL1        0.0985
     10 N         -21.8211   -7.2233  -12.5261 N.ar    1  UNL1       -0.2471
     11 C         -23.1639   -7.0285  -12.6637 C.ar    1  UNL1        0.0695
     12 C         -25.0762   -8.8965  -11.4585 C.3     1  UNL1        0.0886
     13 C         -19.5347   -8.7694   -9.6308 C.ar    1  UNL1       -0.0003
     14 C         -19.6690   -9.5574  -10.7796 C.ar    1  UNL1       -0.0003
     15 C         -20.9037  -10.1352  -11.0941 C.ar    1  UNL1       -0.0045
     16 C         -22.0120   -9.9059  -10.2661 C.ar    1  UNL1       -0.0234
     17 C         -21.8751   -9.1257   -9.1153 C.ar    1  UNL1       -0.0103
     18 C         -20.6353   -8.5557   -8.7937 C.ar    1  UNL1       -0.0032
     19 C         -23.0974   -8.9298   -8.2672 C.3     1  UNL1        0.0953
     20 N         -24.2475   -8.6104   -9.1260 N.3     1  UNL1       -0.2934
     21 C         -24.5337   -9.6180  -10.1901 C.3     1  UNL1        0.0748
     22 C         -23.3370  -10.5654  -10.5088 C.3     1  UNL1        0.0432
     23 H         -24.0659   -7.6665   -9.5437 H       1  UNL1        0.1236
     24 C         -25.2528  -10.1909  -13.5472 C.3     1  UNL1        0.0725
     25 C         -24.9494  -11.6843  -13.3427 C.3     1  UNL1        0.0188
     26 C         -25.7406  -12.6174  -14.2800 C.3     1  UNL1        0.0185
     27 C         -25.2538  -14.0709  -14.2292 C.3     1  UNL1        0.0686
     28 N         -24.6237  -14.4289  -15.5060 N.3     1  UNL1       -0.2975
     29 H         -25.2290  -15.1121  -16.0159 H       1  UNL1        0.1232
     30 C         -23.2645  -14.9720  -15.3301 C.3     1  UNL1        0.0685
     31 C         -22.1379  -14.0055  -15.7875 C.3     1  UNL1        0.0158
     32 C         -22.7191  -12.7373  -16.4737 C.3     1  UNL1        0.0014
     33 C         -21.7765  -11.5359  -16.3486 C.3     1  UNL1        0.0000
     34 C         -21.5512  -11.1467  -14.8747 C.3     1  UNL1        0.0000
     35 C         -21.6214  -12.3461  -13.9082 C.3     1  UNL1        0.0000
     36 C         -21.2051  -13.6515  -14.5955 C.3     1  UNL1        0.0014
@<TRIPOS>BOND
     1    13    14   ar
     2    14    15   ar
     3    15    16   ar
     4    16    17   ar
     5    17    18   ar
     6    17    19    1
     7    19    20    1
     8    20    21    1
     9    21    12    1
    10    12     1    1
    11     1    24    1
    12    24    25    1
    13    25    26    1
    14    26    27    1
    15    27    28    1
    16    28    30    1
    17    30    31    1
    18    31    32    1
    19    32    33    1
    20    33    34    1
    21    34    35    1
    22    35    36    1
    23     1     2    1
    24     2     3    1
    25     3     4    1
    26     4     5    1
    27     5     6    1
    28     6     7   ar
    29     7     8   ar
    30     8     9   ar
    31     9    10   ar
    32    10    11   ar
    33    21    22    1
    34    18    13   ar
    35    36    31    1
    36    11     2    1
    37    22    16    1
    38    11     6   ar
    39    20    23    1
    40    28    29    1
@<TRIPOS>MOLECULE
*****
 36 40 0 0 0
SMALL
GASTEIGER

@<TRIPOS>ATOM
      1 N         -22.5449   -9.3226  -12.8991 N.3     1  UNL1       -0.2679
      2 C         -22.6046   -7.9399  -13.5010 C.3     1  UNL1        0.0978
      3 C         -23.9862   -7.7041  -14.1467 C.3     1  UNL1        0.0224
      4 C         -25.0577   -7.5209  -13.0652 C.3     1  UNL1        0.0065
      5 C         -24.7966   -6.2454  -12.2647 C.3     1  UNL1        0.0277
      6 C         -23.3487   -6.0900  -11.8714 C.ar    1  UNL1       -0.0073
      7 C         -23.0023   -5.1022  -10.9396 C.ar    1  UNL1       -0.0015
      8 C         -21.6618   -4.8173  -10.6837 C.ar    1  UNL1        0.0203
      9 C         -20.6720   -5.5077  -11.3806 C.ar    1  UNL1        0.0985
     10 N         -21.0154   -6.4677  -12.2781 N.ar    1  UNL1       -0.2471
     11 C         -22.3146   -6.7930  -12.5355 C.ar    1  UNL1        0.0695
     12 C         -22.3820  -10.3383  -13.9907 C.3     1  UNL1        0.0886
     13 C         -24.6770  -15.2351  -16.1858 C.ar    1  UNL1       -0.0003
     14 C         -25.6270  -14.5192  -15.4484 C.ar    1  UNL1       -0.0003
     15 C         -25.2159  -13.6300  -14.4498 C.ar    1  UNL1       -0.0045
     16 C         -23.8482  -13.4423  -14.2031 C.ar    1  UNL1       -0.0234
     17 C         -22.9009  -14.1633  -14.9341 C.ar    1  UNL1       -0.0103
     18 C         -23.3128  -15.0629  -15.9275 C.ar    1  UNL1       -0.0032
     19 C         -21.4550  -13.9238  -14.6119 C.3     1  UNL1        0.0953
     20 N         -21.2092  -12.4790  -14.4920 N.3     1  UNL1       -0.2934
     21 C         -22.0671  -11.7786  -13.4906 C.3     1  UNL1        0.0748
     22 C         -23.3527  -12.5656  -13.0916 C.3     1  UNL1        0.0432
     23 H         -21.3355  -12.0659  -15.4469 H       1  UNL1        0.1236
     24 C         -21.4701   -9.4723  -11.8723 C.3     1  UNL1        0.0725
     25 C         -21.9962   -9.5703  -10.4309 C.3     1  UNL1        0.0188
     26 C         -21.1100   -8.8563   -9.3916 C.3     1  UNL1        0.0185
     27 C         -19.6133   -8.9550   -9.7115 C.3     1  UNL1        0.0686
     28 N         -18.8402   -8.9967   -8.4640 N.3     1  UNL1       -0.2975
     29 H         -18.7108   -9.9902   -8.1652 H       1  UNL1        0.1232
     30 C         -19.4671   -8.2093   -7.3868 C.3     1  UNL1        0.0685
     31 C         -19.0756   -8.6764   -5.9581 C.3     1  UNL1        0.0158
     32 C         -18.0130   -9.8104   -6.0007 C.3     1  UNL1        0.0014
     33 C         -17.1586   -9.8424   -4.7292 C.3     1  UNL1        0.0000
     34 C         -16.3651   -8.5335   -4.5498 C.3     1  UNL1        0.0000
     35 C         -17.0865   -7.2978   -5.1243 C.3     1  UNL1        0.0000
     36 C         -18.6096   -7.4686   -5.0976 C.3     1  UNL1        0.0014
@<TRIPOS>BOND
     1    13    14   ar
     2    14    15   ar
     3    15    16   ar
     4    16    17   ar
     5    17    18   ar
     6    17    19    1
     7    19    20    1
     8    20    21    1
     9    21    12    1
    10    12     1    1
    11     1    24    1
    12    24    25    1
    13    25    26    1
    14    26    27    1
    15    27    28    1
    16    28    30    1
    17    30    31    1
    18    31    32    1
    19    32    33    1
    20    33    34    1
    21    34    35    1
    22    35    36    1
    23     1     2    1
    24     2     3    1
    25     3     4    1
    26     4     5    1
    27     5     6    1
    28     6     7   ar
    29     7     8   ar
    30     8     9   ar
    31     9    10   ar
    32    10    11   ar
    33    21    22    1
    34    18    13   ar
    35    36    31    1
    36    11     2    1
    37    22    16    1
    38    11     6   ar
    39    20    23    1
    40    28    29    1
@<TRIPOS>MOLECULE
*****
 36 40 0 0 0
SMALL
GASTEIGER

@<TRIPOS>ATOM
      1 N         -24.6689   -8.9875  -12.9004 N.3     1  UNL1       -0.2679
      2 C         -24.3436   -7.6800  -13.5805 C.3     1  UNL1        0.0978
      3 C         -25.6457   -6.9457  -13.9633 C.3     1  UNL1        0.0224
      4 C         -26.3286   -6.3803  -12.7121 C.3     1  UNL1        0.0065
      5 C         -25.4614   -5.2956  -12.0739 C.3     1  UNL1        0.0277
      6 C         -24.0088   -5.6908  -11.9798 C.ar    1  UNL1       -0.0073
      7 C         -23.1419   -4.9051  -11.2082 C.ar    1  UNL1       -0.0015
      8 C         -21.7680   -5.1397  -11.2374 C.ar    1  UNL1        0.0203
      9 C         -21.2646   -6.1467  -12.0589 C.ar    1  UNL1        0.0985
     10 N         -22.1116   -6.9076  -12.7995 N.ar    1  UNL1       -0.2471
     11 C         -23.4631   -6.7259  -12.7768 C.ar    1  UNL1        0.0695
     12 C         -24.4003  -10.1234  -13.8424 C.3     1  UNL1        0.0886
     13 C         -23.7392  -15.3516  -16.3511 C.ar    1  UNL1       -0.0003
     14 C         -25.0693  -15.1391  -15.9708 C.ar    1  UNL1       -0.0003
     15 C         -25.3704  -14.2368  -14.9451 C.ar    1  UNL1       -0.0045
     16 C         -24.3376  -13.5300  -14.3124 C.ar    1  UNL1       -0.0234
     17 C         -23.0096  -13.7486  -14.6873 C.ar    1  UNL1       -0.0103
     18 C         -22.7064  -14.6611  -15.7076 C.ar    1  UNL1       -0.0032
     19 C         -21.9525  -12.9686  -13.9623 C.3     1  UNL1        0.0953
     20 N         -22.3653  -11.5614  -13.8536 N.3     1  UNL1       -0.2934
     21 C         -23.6870  -11.3455  -13.1933 C.3     1  UNL1        0.0748
     22 C         -24.5939  -12.6132  -13.1534 C.3     1  UNL1        0.0432
     23 H         -22.3626  -11.1650  -14.8237 H       1  UNL1        0.1236
     24 C         -23.9336   -9.1815  -11.6143 C.3     1  UNL1        0.0725
     25 C         -24.8511   -9.3237  -10.3887 C.3     1  UNL1        0.0188
     26 C         -24.0955   -9.5479   -9.0643 C.3     1  UNL1        0.0185
     27 C         -23.1840   -8.3731   -8.6882 C.3     1  UNL1        0.0686
     28 N         -21.8334   -8.8669   -8.3923 N.3     1  UNL1       -0.2975
     29 H         -21.7287   -9.0041   -7.3611 H       1  UNL1        0.1232
     30 C         -20.7815   -7.9701   -8.9048 C.3     1  UNL1        0.0685
     31 C         -19.6239   -8.7097   -9.6298 C.3     1  UNL1        0.0158
     32 C         -18.9691   -9.7805   -8.7124 C.3     1  UNL1        0.0014
     33 C         -18.3282  -10.9129   -9.5213 C.3     1  UNL1        0.0000
     34 C         -19.3757  -11.6682  -10.3623 C.3     1  UNL1        0.0000
     35 C         -20.5470  -10.7776  -10.8232 C.3     1  UNL1        0.0000
     36 C         -20.1191   -9.3134  -10.9739 C.3     1  UNL1        0.0014
@<TRIPOS>BOND
     1    13    14   ar
     2    14    15   ar
     3    15    16   ar
     4    16    17   ar
     5    17    18   ar
     6    17    19    1
     7    19    20    1
     8    20    21    1
     9    21    12    1
    10    12     1    1
    11     1    24    1
    12    24    25    1
    13    25    26    1
    14    26    27    1
    15    27    28    1
    16    28    30    1
    17    30    31    1
    18    31    32    1
    19    32    33    1
    20    33    34    1
    21    34    35    1
    22    35    36    1
    23     1     2    1
    24     2     3    1
    25     3     4    1
    26     4     5    1
    27     5     6    1
    28     6     7   ar
    29     7     8   ar
    30     8     9   ar
    31     9    10   ar
    32    10    11   ar
    33    21    22    1
    34    18    13   ar
    35    36    31    1
    36    11     2    1
    37    22    16    1
    38    11     6   ar
    39    20    23    1
    40    28    29    1
@<TRIPOS>MOLECULE
*****
 36 40 0 0 0
SMALL
GASTEIGER

@<TRIPOS>ATOM
      1 N         -22.3384   -9.8721  -11.7615 N.3     1  UNL1       -0.2679
      2 C         -21.0210   -9.1362  -11.7848 C.3     1  UNL1        0.0978
      3 C         -21.1111   -7.9219  -12.7327 C.3     1  UNL1        0.0224
      4 C         -21.9705   -6.8171  -12.1064 C.3     1  UNL1        0.0065
      5 C         -21.2969   -6.2625  -10.8516 C.3     1  UNL1        0.0277
      6 C         -20.7576   -7.3465   -9.9520 C.ar    1  UNL1       -0.0073
      7 C         -20.3300   -7.0053   -8.6617 C.ar    1  UNL1       -0.0015
      8 C         -19.6704   -7.9437   -7.8693 C.ar    1  UNL1        0.0203
      9 C         -19.4203   -9.2152   -8.3821 C.ar    1  UNL1        0.0985
     10 N         -19.8427   -9.5402   -9.6314 N.ar    1  UNL1       -0.2471
     11 C         -20.5144   -8.6583  -10.4259 C.ar    1  UNL1        0.0695
     12 C         -22.1182  -11.3071  -12.1383 C.3     1  UNL1        0.0886
     13 C         -22.5996   -7.4979  -16.5339 C.ar    1  UNL1       -0.0003
     14 C         -23.6377   -7.3351  -15.6094 C.ar    1  UNL1       -0.0003
     15 C         -24.0189   -8.4008  -14.7873 C.ar    1  UNL1       -0.0045
     16 C         -23.3446   -9.6270  -14.8774 C.ar    1  UNL1       -0.0234
     17 C         -22.3138   -9.7910  -15.8061 C.ar    1  UNL1       -0.0103
     18 C         -21.9388   -8.7267  -16.6380 C.ar    1  UNL1       -0.0032
     19 C         -21.6419  -11.1317  -15.8589 C.3     1  UNL1        0.0953
     20 N         -21.3543  -11.5933  -14.4928 N.3     1  UNL1       -0.2934
     21 C         -22.5433  -11.6653  -13.5925 C.3     1  UNL1        0.0748
     22 C         -23.7637  -10.8266  -14.0806 C.3     1  UNL1        0.0432
     23 H         -20.6252  -10.9516  -14.0991 H       1  UNL1        0.1236
     24 C         -23.0459   -9.7721  -10.4494 C.3     1  UNL1        0.0725
     25 C         -24.4245  -10.4527  -10.4327 C.3     1  UNL1        0.0188
     26 C         -25.0765  -10.5111   -9.0374 C.3     1  UNL1        0.0185
     27 C         -26.4517   -9.8338   -8.9898 C.3     1  UNL1        0.0686
     28 N         -26.3060   -8.3949   -9.2429 N.3     1  UNL1       -0.2975
     29 H         -26.3791   -7.8714   -8.3408 H       1  UNL1        0.1232
     30 C         -27.2933   -7.8917  -10.2151 C.3     1  UNL1        0.0685
     31 C         -26.7877   -7.8970  -11.6838 C.3     1  UNL1        0.0158
     32 C         -27.9572   -7.7029  -12.6895 C.3     1  UNL1        0.0014
     33 C         -27.4836   -7.0731  -14.0035 C.3     1  UNL1        0.0000
     34 C         -26.8923   -5.6685  -13.7749 C.3     1  UNL1        0.0000
     35 C         -26.2163   -5.5065  -12.3986 C.3     1  UNL1        0.0000
     36 C         -25.6656   -6.8391  -11.8785 C.3     1  UNL1        0.0014
@<TRIPOS>BOND
     1    13    14   ar
     2    14    15   ar
     3    15    16   ar
     4    16    17   ar
     5    17    18   ar
     6    17    19    1
     7    19    20    1
     8    20    21    1
     9    21    12    1
    10    12     1    1
    11     1    24    1
    12    24    25    1
    13    25    26    1
    14    26    27    1
    15    27    28    1
    16    28    30    1
    17    30    31    1
    18    31    32    1
    19    32    33    1
    20    33    34    1
    21    34    35    1
    22    35    36    1
    23     1     2    1
    24     2     3    1
    25     3     4    1
    26     4     5    1
    27     5     6    1
    28     6     7   ar
    29     7     8   ar
    30     8     9   ar
    31     9    10   ar
    32    10    11   ar
    33    21    22    1
    34    18    13   ar
    35    36    31    1
    36    11     2    1
    37    22    16    1
    38    11     6   ar
    39    20    23    1
    40    28    29    1
