@<TRIPOS>MOLECULE
*****
 41 45 0 0 0
SMALL
GASTEIGER

@<TRIPOS>ATOM
      1 C          -7.6545  -11.8000   29.9518 C.ar    1  UNL1        0.1649
      2 C          -8.7468  -12.6962   29.7597 C.ar    1  UNL1        0.1226
      3 C          -9.8116  -12.6676   30.6911 C.ar    1  UNL1        0.1430
      4 C          -9.8431  -11.7959   31.7511 C.ar    1  UNL1        0.0329
      5 C          -8.7750  -10.9179   31.9352 C.ar    1  UNL1        0.0819
      6 C          -7.7118  -10.9286   31.0667 C.ar    1  UNL1        0.1337
      7 N          -6.7857  -10.0407   31.4716 N.ar    1  UNL1       -0.2104
      8 C          -7.3281   -9.5002   32.5924 C.ar    1  UNL1        0.2019
      9 N          -8.5513  -10.0075   32.9028 N.ar    1  UNL1       -0.2976
     10 C          -9.3949   -9.6882   34.0544 C.3     1  UNL1        0.1332
     11 C         -11.0750  -12.0168   32.5581 C.3     1  UNL1        0.0709
     12 C         -11.7626  -13.2083   31.8146 C.3     1  UNL1        0.1375
     13 C         -11.8500  -14.4498   32.7123 C.3     1  UNL1        0.0439
     14 C         -13.1551  -12.8210   31.2992 C.3     1  UNL1        0.0439
     15 O         -10.9152  -13.4958   30.7014 O.3     1  UNL1       -0.4823
     16 C          -8.7686  -13.6588   28.6329 C.2     1  UNL1        0.2555
     17 O          -9.8576  -13.9187   28.0523 O.2     1  UNL1       -0.2696
     18 N          -7.5640  -14.3279   28.2256 N.am    1  UNL1       -0.2802
     19 H          -6.8134  -14.4589   28.9413 H       1  UNL1        0.1552
     20 C          -7.3819  -14.9362   26.9355 C.ar    1  UNL1        0.0505
     21 C          -6.1493  -14.8034   26.2809 C.ar    1  UNL1        0.0147
     22 C          -5.9600  -15.3534   25.0119 C.ar    1  UNL1        0.0012
     23 C          -7.0008  -16.0374   24.3804 C.ar    1  UNL1        0.0039
     24 C          -8.2435  -16.1870   25.0192 C.ar    1  UNL1        0.0726
     25 C          -8.4351  -15.6067   26.2862 C.ar    1  UNL1        0.0185
     26 C          -9.3896  -16.8657   24.3118 C.3     1  UNL1        0.4186
     27 F         -10.3161  -15.9139   23.9293 F       1  UNL1       -0.1659
     28 F          -8.9431  -17.5379   23.1871 F       1  UNL1       -0.1659
     29 F         -10.0033  -17.7827   25.1476 F       1  UNL1       -0.1659
     30 C          -5.6927  -10.7265   28.7983 C.3     1  UNL1        0.2525
     31 O          -6.5871  -11.8081   29.0358 O.3     1  UNL1       -0.4696
     32 N          -6.6275   -8.5445   33.4038 N.pl3   1  UNL1       -0.2814
     33 H          -6.7328   -8.5917   34.4405 H       1  UNL1        0.1551
     34 C          -5.6316   -7.6614   32.8616 C.ar    1  UNL1        0.0889
     35 C          -4.4049   -7.4700   33.5282 C.ar    1  UNL1        0.1543
     36 F          -4.1288   -8.1381   34.6765 F       1  UNL1       -0.2028
     37 C          -3.4372   -6.6161   32.9910 C.ar    1  UNL1        0.0310
     38 C          -3.6757   -5.9560   31.7844 C.ar    1  UNL1        0.0033
     39 C          -4.8804   -6.1520   31.1066 C.ar    1  UNL1        0.0128
     40 C          -5.8571   -7.0046   31.6347 C.ar    1  UNL1        0.0733
     41 CL         -7.3702   -7.1992   30.7588 Cl      1  UNL1       -0.0809
@<TRIPOS>BOND
     1    30    31    1
     2    31     1    1
     3     1     2   ar
     4     2    16    1
     5    16    17    2
     6    16    18   am
     7    18    20    1
     8    20    21   ar
     9    21    22   ar
    10    22    23   ar
    11    23    24   ar
    12    24    26    1
    13    26    27    1
    14    26    28    1
    15    26    29    1
    16    24    25   ar
    17     2     3   ar
    18     3     4   ar
    19     4     5   ar
    20     5     6   ar
    21     6     7   ar
    22     7     8   ar
    23     8    32    1
    24    32    34    1
    25    34    35   ar
    26    35    36    1
    27    35    37   ar
    28    37    38   ar
    29    38    39   ar
    30    39    40   ar
    31    40    41    1
    32     8     9   ar
    33     9    10    1
    34     4    11    1
    35    11    12    1
    36    12    13    1
    37    12    14    1
    38    12    15    1
    39     6     1   ar
    40    40    34   ar
    41    25    20   ar
    42    15     3    1
    43     9     5   ar
    44    18    19    1
    45    32    33    1
@<TRIPOS>MOLECULE
*****
 41 45 0 0 0
SMALL
GASTEIGER

@<TRIPOS>ATOM
      1 C          -8.3767  -14.1300   28.3433 C.ar    1  UNL1        0.1649
      2 C          -7.1308  -13.7004   27.7988 C.ar    1  UNL1        0.1226
      3 C          -6.5371  -12.5276   28.3224 C.ar    1  UNL1        0.1430
      4 C          -7.1005  -11.8080   29.3467 C.ar    1  UNL1        0.0329
      5 C          -8.3176  -12.2320   29.8800 C.ar    1  UNL1        0.0819
      6 C          -8.9378  -13.3525   29.3856 C.ar    1  UNL1        0.1337
      7 N         -10.1141  -13.5346   30.0127 N.ar    1  UNL1       -0.2104
      8 C         -10.1712  -12.5029   30.8929 C.ar    1  UNL1        0.2019
      9 N          -9.0831  -11.6882   30.8461 N.ar    1  UNL1       -0.2976
     10 C          -8.8344  -10.4697   31.6163 C.3     1  UNL1        0.1332
     11 C          -6.2558  -10.6232   29.6639 C.3     1  UNL1        0.0709
     12 C          -5.0996  -10.7366   28.6173 C.3     1  UNL1        0.1375
     13 C          -5.1016   -9.5430   27.6528 C.3     1  UNL1        0.0439
     14 C          -3.7327  -10.8698   29.3018 C.3     1  UNL1        0.0439
     15 O          -5.3733  -11.9307   27.8829 O.3     1  UNL1       -0.4823
     16 C          -6.4747  -14.4374   26.6929 C.2     1  UNL1        0.2555
     17 O          -5.3905  -15.0466   26.9030 O.2     1  UNL1       -0.2696
     18 N          -7.0452  -14.4276   25.3742 N.am    1  UNL1       -0.2802
     19 H          -7.6403  -13.6109   25.1067 H       1  UNL1        0.1552
     20 C          -6.7450  -15.4055   24.3637 C.ar    1  UNL1        0.0505
     21 C          -7.7903  -16.1396   23.7858 C.ar    1  UNL1        0.0147
     22 C          -7.5209  -17.1203   22.8295 C.ar    1  UNL1        0.0012
     23 C          -6.2047  -17.3823   22.4435 C.ar    1  UNL1        0.0039
     24 C          -5.1413  -16.6558   23.0057 C.ar    1  UNL1        0.0726
     25 C          -5.4185  -15.6882   23.9885 C.ar    1  UNL1        0.0185
     26 C          -3.7150  -16.9833   22.6411 C.3     1  UNL1        0.4186
     27 F          -3.1161  -17.6454   23.6964 F       1  UNL1       -0.1659
     28 F          -3.6687  -17.7905   21.5176 F       1  UNL1       -0.1659
     29 F          -3.0035  -15.8269   22.3716 F       1  UNL1       -0.1659
     30 C          -8.3480  -16.5612   27.6950 C.3     1  UNL1        0.2525
     31 O          -8.9830  -15.2957   27.8410 O.3     1  UNL1       -0.4696
     32 N         -11.3150  -12.2651   31.7281 N.pl3   1  UNL1       -0.2814
     33 H         -11.9443  -11.4641   31.5030 H       1  UNL1        0.1551
     34 C         -11.7402  -13.2018   32.7318 C.ar    1  UNL1        0.0889
     35 C         -12.8801  -14.0044   32.5255 C.ar    1  UNL1        0.1543
     36 F         -13.5788  -13.9301   31.3646 F       1  UNL1       -0.2028
     37 C         -13.2832  -14.9195   33.5022 C.ar    1  UNL1        0.0310
     38 C         -12.5524  -15.0521   34.6840 C.ar    1  UNL1        0.0033
     39 C         -11.4114  -14.2747   34.8913 C.ar    1  UNL1        0.0128
     40 C         -10.9979  -13.3548   33.9205 C.ar    1  UNL1        0.0733
     41 CL         -9.5697  -12.3779   34.2377 Cl      1  UNL1       -0.0809
@<TRIPOS>BOND
     1    30    31    1
     2    31     1    1
     3     1     2   ar
     4     2    16    1
     5    16    17    2
     6    16    18   am
     7    18    20    1
     8    20    21   ar
     9    21    22   ar
    10    22    23   ar
    11    23    24   ar
    12    24    26    1
    13    26    27    1
    14    26    28    1
    15    26    29    1
    16    24    25   ar
    17     2     3   ar
    18     3     4   ar
    19     4     5   ar
    20     5     6   ar
    21     6     7   ar
    22     7     8   ar
    23     8    32    1
    24    32    34    1
    25    34    35   ar
    26    35    36    1
    27    35    37   ar
    28    37    38   ar
    29    38    39   ar
    30    39    40   ar
    31    40    41    1
    32     8     9   ar
    33     9    10    1
    34     4    11    1
    35    11    12    1
    36    12    13    1
    37    12    14    1
    38    12    15    1
    39     6     1   ar
    40    40    34   ar
    41    25    20   ar
    42    15     3    1
    43     9     5   ar
    44    18    19    1
    45    32    33    1
@<TRIPOS>MOLECULE
*****
 41 45 0 0 0
SMALL
GASTEIGER

@<TRIPOS>ATOM
      1 C          -8.3930  -14.1049   28.3586 C.ar    1  UNL1        0.1649
      2 C          -7.1431  -13.6571   27.8387 C.ar    1  UNL1        0.1226
      3 C          -6.5675  -12.4866   28.3871 C.ar    1  UNL1        0.1430
      4 C          -7.1522  -11.7861   29.4126 C.ar    1  UNL1        0.0329
      5 C          -8.3734  -12.2279   29.9219 C.ar    1  UNL1        0.0819
      6 C          -8.9764  -13.3466   29.4028 C.ar    1  UNL1        0.1337
      7 N         -10.1602  -13.5474   30.0097 N.ar    1  UNL1       -0.2104
      8 C         -10.2394  -12.5285   30.9031 C.ar    1  UNL1        0.2019
      9 N          -9.1579  -11.7040   30.8837 N.ar    1  UNL1       -0.2976
     10 C          -8.9313  -10.4942   31.6742 C.3     1  UNL1        0.1332
     11 C          -6.3228  -10.5987   29.7587 C.3     1  UNL1        0.0709
     12 C          -5.1502  -10.6877   28.7281 C.3     1  UNL1        0.1375
     13 C          -5.1482   -9.4809   27.7801 C.3     1  UNL1        0.0439
     14 C          -3.7924  -10.8187   29.4311 C.3     1  UNL1        0.0439
     15 O          -5.4024  -11.8738   27.9734 O.3     1  UNL1       -0.4823
     16 C          -6.4642  -14.3731   26.7328 C.2     1  UNL1        0.2555
     17 O          -5.3578  -14.9418   26.9409 O.2     1  UNL1       -0.2696
     18 N          -7.0389  -14.3880   25.4159 N.am    1  UNL1       -0.2802
     19 H          -7.6642  -13.5944   25.1481 H       1  UNL1        0.1552
     20 C          -6.7066  -15.3575   24.4073 C.ar    1  UNL1        0.0505
     21 C          -5.4203  -15.3558   23.8497 C.ar    1  UNL1        0.0147
     22 C          -5.0851  -16.2629   22.8430 C.ar    1  UNL1        0.0012
     23 C          -6.0319  -17.1782   22.3783 C.ar    1  UNL1        0.0039
     24 C          -7.3260  -17.2014   22.9256 C.ar    1  UNL1        0.0726
     25 C          -7.6645  -16.2663   23.9205 C.ar    1  UNL1        0.0185
     26 C          -8.3702  -18.1424   22.3788 C.3     1  UNL1        0.4186
     27 F          -9.6211  -17.7238   22.7919 F       1  UNL1       -0.1659
     28 F          -8.3356  -18.1633   20.9952 F       1  UNL1       -0.1659
     29 F          -8.1517  -19.4307   22.8357 F       1  UNL1       -0.1659
     30 C          -8.3452  -16.5361   27.7118 C.3     1  UNL1        0.2525
     31 O          -8.9816  -15.2685   27.8313 O.3     1  UNL1       -0.4696
     32 N         -11.3976  -12.3121   31.7242 N.pl3   1  UNL1       -0.2814
     33 H         -12.0405  -11.5248   31.4895 H       1  UNL1        0.1551
     34 C         -11.8151  -13.2547   32.7256 C.ar    1  UNL1        0.0889
     35 C         -12.9431  -14.0724   32.5135 C.ar    1  UNL1        0.1543
     36 F         -13.6370  -14.0071   31.3492 F       1  UNL1       -0.2028
     37 C         -13.3388  -14.9931   33.4880 C.ar    1  UNL1        0.0310
     38 C         -12.6121  -15.1163   34.6734 C.ar    1  UNL1        0.0033
     39 C         -11.4826  -14.3237   34.8864 C.ar    1  UNL1        0.0128
     40 C         -11.0766  -13.3981   33.9178 C.ar    1  UNL1        0.0733
     41 CL         -9.6632  -12.4023   34.2423 Cl      1  UNL1       -0.0809
@<TRIPOS>BOND
     1    30    31    1
     2    31     1    1
     3     1     2   ar
     4     2    16    1
     5    16    17    2
     6    16    18   am
     7    18    20    1
     8    20    21   ar
     9    21    22   ar
    10    22    23   ar
    11    23    24   ar
    12    24    26    1
    13    26    27    1
    14    26    28    1
    15    26    29    1
    16    24    25   ar
    17     2     3   ar
    18     3     4   ar
    19     4     5   ar
    20     5     6   ar
    21     6     7   ar
    22     7     8   ar
    23     8    32    1
    24    32    34    1
    25    34    35   ar
    26    35    36    1
    27    35    37   ar
    28    37    38   ar
    29    38    39   ar
    30    39    40   ar
    31    40    41    1
    32     8     9   ar
    33     9    10    1
    34     4    11    1
    35    11    12    1
    36    12    13    1
    37    12    14    1
    38    12    15    1
    39     6     1   ar
    40    40    34   ar
    41    25    20   ar
    42    15     3    1
    43     9     5   ar
    44    18    19    1
    45    32    33    1
@<TRIPOS>MOLECULE
*****
 41 45 0 0 0
SMALL
GASTEIGER

@<TRIPOS>ATOM
      1 C          -9.0416  -11.5753   29.7911 C.ar    1  UNL1        0.1649
      2 C          -9.5840  -12.8894   29.9018 C.ar    1  UNL1        0.1226
      3 C         -10.6429  -13.1048   30.8152 C.ar    1  UNL1        0.1430
      4 C         -11.1809  -12.0955   31.5744 C.ar    1  UNL1        0.0329
      5 C         -10.6509  -10.8101   31.4620 C.ar    1  UNL1        0.0819
      6 C          -9.6084  -10.5633   30.6035 C.ar    1  UNL1        0.1337
      7 N          -9.2331   -9.2752   30.7035 N.ar    1  UNL1       -0.2104
      8 C         -10.0810   -8.7653   31.6327 C.ar    1  UNL1        0.2019
      9 N         -10.9701   -9.6752   32.1140 N.ar    1  UNL1       -0.2976
     10 C         -11.9885   -9.4830   33.1463 C.3     1  UNL1        0.1332
     11 C         -12.2616  -12.6326   32.4468 C.3     1  UNL1        0.0709
     12 C         -12.2514  -14.1584   32.1049 C.3     1  UNL1        0.1375
     13 C         -11.8684  -15.0015   33.3287 C.3     1  UNL1        0.0439
     14 C         -13.6026  -14.6171   31.5403 C.3     1  UNL1        0.0439
     15 O         -11.2482  -14.3116   31.0999 O.3     1  UNL1       -0.4823
     16 C          -9.0448  -14.0182   29.1070 C.2     1  UNL1        0.2555
     17 O          -9.6299  -15.1354   29.1290 O.2     1  UNL1       -0.2696
     18 N          -7.8373  -13.8587   28.3447 N.am    1  UNL1       -0.2802
     19 H          -7.1503  -13.1390   28.6651 H       1  UNL1        0.1552
     20 C          -7.4625  -14.7112   27.2491 C.ar    1  UNL1        0.0505
     21 C          -6.1076  -14.8446   26.9145 C.ar    1  UNL1        0.0147
     22 C          -5.7215  -15.6372   25.8322 C.ar    1  UNL1        0.0012
     23 C          -6.6842  -16.3012   25.0690 C.ar    1  UNL1        0.0039
     24 C          -8.0477  -16.1860   25.3886 C.ar    1  UNL1        0.0726
     25 C          -8.4309  -15.3639   26.4638 C.ar    1  UNL1        0.0185
     26 C          -9.0934  -16.8466   24.5255 C.3     1  UNL1        0.4186
     27 F          -9.9795  -15.8883   24.0704 F       1  UNL1       -0.1659
     28 F          -8.5083  -17.4725   23.4383 F       1  UNL1       -0.1659
     29 F          -9.7907  -17.7991   25.2484 F       1  UNL1       -0.1659
     30 C          -6.6748  -10.9251   29.2372 C.3     1  UNL1        0.2525
     31 O          -7.9912  -11.3373   28.8863 O.3     1  UNL1       -0.4696
     32 N          -9.9809   -7.4138   32.1080 N.pl3   1  UNL1       -0.2814
     33 H         -10.5054   -7.1430   32.9682 H       1  UNL1        0.1551
     34 C          -9.0314   -6.4793   31.5689 C.ar    1  UNL1        0.0889
     35 C          -7.7013   -6.4611   32.0339 C.ar    1  UNL1        0.1543
     36 F          -7.2845   -7.3444   32.9759 F       1  UNL1       -0.2028
     37 C          -6.7806   -5.5552   31.4993 C.ar    1  UNL1        0.0310
     38 C          -7.1704   -4.6700   30.4929 C.ar    1  UNL1        0.0033
     39 C          -8.4811   -4.6914   30.0123 C.ar    1  UNL1        0.0128
     40 C          -9.4120   -5.5940   30.5400 C.ar    1  UNL1        0.0733
     41 CL        -11.0588   -5.5655   29.9219 Cl      1  UNL1       -0.0809
@<TRIPOS>BOND
     1    30    31    1
     2    31     1    1
     3     1     2   ar
     4     2    16    1
     5    16    17    2
     6    16    18   am
     7    18    20    1
     8    20    21   ar
     9    21    22   ar
    10    22    23   ar
    11    23    24   ar
    12    24    26    1
    13    26    27    1
    14    26    28    1
    15    26    29    1
    16    24    25   ar
    17     2     3   ar
    18     3     4   ar
    19     4     5   ar
    20     5     6   ar
    21     6     7   ar
    22     7     8   ar
    23     8    32    1
    24    32    34    1
    25    34    35   ar
    26    35    36    1
    27    35    37   ar
    28    37    38   ar
    29    38    39   ar
    30    39    40   ar
    31    40    41    1
    32     8     9   ar
    33     9    10    1
    34     4    11    1
    35    11    12    1
    36    12    13    1
    37    12    14    1
    38    12    15    1
    39     6     1   ar
    40    40    34   ar
    41    25    20   ar
    42    15     3    1
    43     9     5   ar
    44    18    19    1
    45    32    33    1
@<TRIPOS>MOLECULE
*****
 41 45 0 0 0
SMALL
GASTEIGER

@<TRIPOS>ATOM
      1 C          -8.9696  -11.5752   29.7686 C.ar    1  UNL1        0.1649
      2 C          -9.5263  -12.8832   29.8796 C.ar    1  UNL1        0.1226
      3 C         -10.5870  -13.0870   30.7936 C.ar    1  UNL1        0.1430
      4 C         -11.1134  -12.0720   31.5532 C.ar    1  UNL1        0.0329
      5 C         -10.5694  -10.7925   31.4406 C.ar    1  UNL1        0.0819
      6 C          -9.5247  -10.5571   30.5816 C.ar    1  UNL1        0.1337
      7 N          -9.1352   -9.2732   30.6814 N.ar    1  UNL1       -0.2104
      8 C          -9.9769   -8.7541   31.6112 C.ar    1  UNL1        0.2019
      9 N         -10.8756   -9.6542   32.0929 N.ar    1  UNL1       -0.2976
     10 C         -11.8912   -9.4509   33.1259 C.3     1  UNL1        0.1332
     11 C         -12.1995  -12.5973   32.4262 C.3     1  UNL1        0.0709
     12 C         -12.2063  -14.1231   32.0842 C.3     1  UNL1        0.1375
     13 C         -11.8318  -14.9704   33.3076 C.3     1  UNL1        0.0439
     14 C         -13.5627  -14.5668   31.5203 C.3     1  UNL1        0.0439
     15 O         -11.2054  -14.2872   31.0786 O.3     1  UNL1       -0.4823
     16 C          -9.0001  -14.0179   29.0844 C.2     1  UNL1        0.2555
     17 O          -9.5947  -15.1299   29.1104 O.2     1  UNL1       -0.2696
     18 N          -7.7943  -13.8699   28.3170 N.am    1  UNL1       -0.2802
     19 H          -7.0998  -13.1557   28.6336 H       1  UNL1        0.1552
     20 C          -7.4312  -14.7273   27.2213 C.ar    1  UNL1        0.0505
     21 C          -6.0797  -14.8642   26.8745 C.ar    1  UNL1        0.0147
     22 C          -5.7052  -15.6616   25.7916 C.ar    1  UNL1        0.0012
     23 C          -6.6761  -16.3268   25.0400 C.ar    1  UNL1        0.0039
     24 C          -8.0364  -16.2081   25.3720 C.ar    1  UNL1        0.0726
     25 C          -8.4080  -15.3812   26.4476 C.ar    1  UNL1        0.0185
     26 C          -9.0912  -16.8702   24.5212 C.3     1  UNL1        0.4186
     27 F          -9.9756  -15.9111   24.0646 F       1  UNL1       -0.1659
     28 F          -8.5167  -17.5076   23.4351 F       1  UNL1       -0.1659
     29 F          -9.7883  -17.8134   25.2564 F       1  UNL1       -0.1659
     30 C          -6.5983  -10.9431   29.2128 C.3     1  UNL1        0.2525
     31 O          -7.9172  -11.3486   28.8632 O.3     1  UNL1       -0.4696
     32 N          -9.8617   -7.4039   32.0866 N.pl3   1  UNL1       -0.2814
     33 H          -9.6109   -7.2423   33.0862 H       1  UNL1        0.1551
     34 C          -9.8753   -6.2740   31.1984 C.ar    1  UNL1        0.0889
     35 C         -11.0876   -5.6336   30.8727 C.ar    1  UNL1        0.1543
     36 F         -12.2593   -6.0516   31.4146 F       1  UNL1       -0.2028
     37 C         -11.0928   -4.5300   30.0148 C.ar    1  UNL1        0.0310
     38 C          -9.8951   -4.0481   29.4839 C.ar    1  UNL1        0.0033
     39 C          -8.6864   -4.6640   29.8138 C.ar    1  UNL1        0.0128
     40 C          -8.6686   -5.7700   30.6719 C.ar    1  UNL1        0.0733
     41 CL         -7.1246   -6.5296   31.0373 Cl      1  UNL1       -0.0809
@<TRIPOS>BOND
     1    30    31    1
     2    31     1    1
     3     1     2   ar
     4     2    16    1
     5    16    17    2
     6    16    18   am
     7    18    20    1
     8    20    21   ar
     9    21    22   ar
    10    22    23   ar
    11    23    24   ar
    12    24    26    1
    13    26    27    1
    14    26    28    1
    15    26    29    1
    16    24    25   ar
    17     2     3   ar
    18     3     4   ar
    19     4     5   ar
    20     5     6   ar
    21     6     7   ar
    22     7     8   ar
    23     8    32    1
    24    32    34    1
    25    34    35   ar
    26    35    36    1
    27    35    37   ar
    28    37    38   ar
    29    38    39   ar
    30    39    40   ar
    31    40    41    1
    32     8     9   ar
    33     9    10    1
    34     4    11    1
    35    11    12    1
    36    12    13    1
    37    12    14    1
    38    12    15    1
    39     6     1   ar
    40    40    34   ar
    41    25    20   ar
    42    15     3    1
    43     9     5   ar
    44    18    19    1
    45    32    33    1
@<TRIPOS>MOLECULE
*****
 41 45 0 0 0
SMALL
GASTEIGER

@<TRIPOS>ATOM
      1 C          -7.7035  -15.5944   25.2412 C.ar    1  UNL1        0.1649
      2 C          -6.3106  -15.3064   25.1404 C.ar    1  UNL1        0.1226
      3 C          -5.5639  -15.9461   24.1229 C.ar    1  UNL1        0.1430
      4 C          -6.1335  -16.8080   23.2190 C.ar    1  UNL1        0.0329
      5 C          -7.4969  -17.0857   23.3175 C.ar    1  UNL1        0.0819
      6 C          -8.2530  -16.5030   24.3041 C.ar    1  UNL1        0.1337
      7 N          -9.5174  -16.9575   24.2354 N.ar    1  UNL1       -0.2104
      8 C          -9.4934  -17.8143   23.1829 C.ar    1  UNL1        0.2019
      9 N          -8.2733  -17.9121   22.5900 N.ar    1  UNL1       -0.2976
     10 C          -7.8808  -18.7654   21.4686 C.3     1  UNL1        0.1332
     11 C          -5.0957  -17.3315   22.2880 C.3     1  UNL1        0.0709
     12 C          -3.7879  -16.6590   22.8196 C.3     1  UNL1        0.1375
     13 C          -2.7906  -17.7068   23.3319 C.3     1  UNL1        0.0439
     14 C          -3.1340  -15.7763   21.7481 C.3     1  UNL1        0.0439
     15 O          -4.2046  -15.8380   23.9115 O.3     1  UNL1       -0.4823
     16 C          -5.6411  -14.3834   26.0872 C.2     1  UNL1        0.2555
     17 O          -4.4310  -14.0747   25.9108 O.2     1  UNL1       -0.2696
     18 N          -6.3505  -13.8712   27.2269 N.am    1  UNL1       -0.2802
     19 H          -7.1407  -14.4412   27.6056 H       1  UNL1        0.1552
     20 C          -5.9602  -12.6913   27.9502 C.ar    1  UNL1        0.0505
     21 C          -4.9428  -11.8752   27.4361 C.ar    1  UNL1        0.0147
     22 C          -4.5208  -10.7448   28.1381 C.ar    1  UNL1        0.0012
     23 C          -5.1064  -10.4196   29.3634 C.ar    1  UNL1        0.0039
     24 C          -6.1311  -11.2203   29.8960 C.ar    1  UNL1        0.0726
     25 C          -6.5320  -12.3727   29.1960 C.ar    1  UNL1        0.0185
     26 C          -6.7176  -10.9100   31.2504 C.3     1  UNL1        0.4186
     27 F          -5.8169  -11.2792   32.2317 F       1  UNL1       -0.1659
     28 F          -6.9863   -9.5574   31.3705 F       1  UNL1       -0.1659
     29 F          -7.9005  -11.6036   31.4393 F       1  UNL1       -0.1659
     30 C          -8.7686  -15.5177   27.5197 C.3     1  UNL1        0.2525
     31 O          -8.4663  -14.9666   26.2425 O.3     1  UNL1       -0.4696
     32 N         -10.6362  -18.5943   22.7982 N.pl3   1  UNL1       -0.2814
     33 H         -10.5032  -19.3875   22.1338 H       1  UNL1        0.1551
     34 C         -11.9119  -18.4573   23.4459 C.ar    1  UNL1        0.0889
     35 C         -12.0983  -18.9162   24.7652 C.ar    1  UNL1        0.1543
     36 F         -11.0703  -19.4673   25.4587 F       1  UNL1       -0.2028
     37 C         -13.3393  -18.7722   25.3922 C.ar    1  UNL1        0.0310
     38 C         -14.3992  -18.1625   24.7190 C.ar    1  UNL1        0.0033
     39 C         -14.2207  -17.6884   23.4180 C.ar    1  UNL1        0.0128
     40 C         -12.9825  -17.8269   22.7797 C.ar    1  UNL1        0.0733
     41 CL        -12.8129  -17.2386   21.1306 Cl      1  UNL1       -0.0809
@<TRIPOS>BOND
     1    30    31    1
     2    31     1    1
     3     1     2   ar
     4     2    16    1
     5    16    17    2
     6    16    18   am
     7    18    20    1
     8    20    21   ar
     9    21    22   ar
    10    22    23   ar
    11    23    24   ar
    12    24    26    1
    13    26    27    1
    14    26    28    1
    15    26    29    1
    16    24    25   ar
    17     2     3   ar
    18     3     4   ar
    19     4     5   ar
    20     5     6   ar
    21     6     7   ar
    22     7     8   ar
    23     8    32    1
    24    32    34    1
    25    34    35   ar
    26    35    36    1
    27    35    37   ar
    28    37    38   ar
    29    38    39   ar
    30    39    40   ar
    31    40    41    1
    32     8     9   ar
    33     9    10    1
    34     4    11    1
    35    11    12    1
    36    12    13    1
    37    12    14    1
    38    12    15    1
    39     6     1   ar
    40    40    34   ar
    41    25    20   ar
    42    15     3    1
    43     9     5   ar
    44    18    19    1
    45    32    33    1
@<TRIPOS>MOLECULE
*****
 41 45 0 0 0
SMALL
GASTEIGER

@<TRIPOS>ATOM
      1 C          -7.9291  -11.8331   29.9407 C.ar    1  UNL1        0.1649
      2 C          -9.0461  -12.7073   29.7949 C.ar    1  UNL1        0.1226
      3 C         -10.0366  -12.7066   30.8053 C.ar    1  UNL1        0.1430
      4 C          -9.9746  -11.8812   31.9004 C.ar    1  UNL1        0.0329
      5 C          -8.8826  -11.0245   32.0393 C.ar    1  UNL1        0.0819
      6 C          -7.8887  -11.0101   31.0924 C.ar    1  UNL1        0.1337
      7 N          -6.9214  -10.1513   31.4626 N.ar    1  UNL1       -0.2104
      8 C          -7.3691   -9.6535   32.6433 C.ar    1  UNL1        0.2019
      9 N          -8.5726  -10.1595   33.0245 N.ar    1  UNL1       -0.2976
     10 C          -9.3216   -9.8804   34.2497 C.3     1  UNL1        0.1332
     11 C         -11.1449  -12.1224   32.7892 C.3     1  UNL1        0.0709
     12 C         -11.9046  -13.2725   32.0507 C.3     1  UNL1        0.1375
     13 C         -11.9423  -14.5506   32.8993 C.3     1  UNL1        0.0439
     14 C         -13.3263  -12.8470   31.6601 C.3     1  UNL1        0.0439
     15 O         -11.1485  -13.5216   30.8649 O.3     1  UNL1       -0.4823
     16 C          -9.1676  -13.6201   28.6335 C.2     1  UNL1        0.2555
     17 O         -10.2476  -13.6664   27.9837 O.2     1  UNL1       -0.2696
     18 N          -8.0768  -14.4815   28.2692 N.am    1  UNL1       -0.2802
     19 H          -7.4064  -14.7631   29.0202 H       1  UNL1        0.1552
     20 C          -7.9256  -15.0775   26.9694 C.ar    1  UNL1        0.0505
     21 C          -8.9582  -15.8736   26.4542 C.ar    1  UNL1        0.0147
     22 C          -8.8199  -16.4929   25.2107 C.ar    1  UNL1        0.0012
     23 C          -7.6474  -16.3283   24.4704 C.ar    1  UNL1        0.0039
     24 C          -6.6010  -15.5311   24.9647 C.ar    1  UNL1        0.0726
     25 C          -6.7368  -14.9325   26.2304 C.ar    1  UNL1        0.0185
     26 C          -5.3076  -15.4069   24.1989 C.3     1  UNL1        0.4186
     27 F          -4.7224  -16.6544   24.0888 F       1  UNL1       -0.1659
     28 F          -5.5350  -14.9018   22.9304 F       1  UNL1       -0.1659
     29 F          -4.4344  -14.5549   24.8529 F       1  UNL1       -0.1659
     30 C          -5.8337  -10.9130   28.8944 C.3     1  UNL1        0.2525
     31 O          -6.9344  -11.8141   28.9462 O.3     1  UNL1       -0.4696
     32 N          -6.5948   -8.7420   33.4383 N.pl3   1  UNL1       -0.2814
     33 H          -6.5717   -8.8719   34.4731 H       1  UNL1        0.1551
     34 C          -5.6912   -7.7900   32.8528 C.ar    1  UNL1        0.0889
     35 C          -4.4222   -7.5630   33.4220 C.ar    1  UNL1        0.1543
     36 F          -4.0180   -8.2600   34.5138 F       1  UNL1       -0.2028
     37 C          -3.5450   -6.6418   32.8425 C.ar    1  UNL1        0.0310
     38 C          -3.9163   -5.9487   31.6892 C.ar    1  UNL1        0.0033
     39 C          -5.1642   -6.1787   31.1067 C.ar    1  UNL1        0.0128
     40 C          -6.0512   -7.0988   31.6780 C.ar    1  UNL1        0.0733
     41 CL         -7.6230   -7.3352   30.9242 Cl      1  UNL1       -0.0809
@<TRIPOS>BOND
     1    30    31    1
     2    31     1    1
     3     1     2   ar
     4     2    16    1
     5    16    17    2
     6    16    18   am
     7    18    20    1
     8    20    21   ar
     9    21    22   ar
    10    22    23   ar
    11    23    24   ar
    12    24    26    1
    13    26    27    1
    14    26    28    1
    15    26    29    1
    16    24    25   ar
    17     2     3   ar
    18     3     4   ar
    19     4     5   ar
    20     5     6   ar
    21     6     7   ar
    22     7     8   ar
    23     8    32    1
    24    32    34    1
    25    34    35   ar
    26    35    36    1
    27    35    37   ar
    28    37    38   ar
    29    38    39   ar
    30    39    40   ar
    31    40    41    1
    32     8     9   ar
    33     9    10    1
    34     4    11    1
    35    11    12    1
    36    12    13    1
    37    12    14    1
    38    12    15    1
    39     6     1   ar
    40    40    34   ar
    41    25    20   ar
    42    15     3    1
    43     9     5   ar
    44    18    19    1
    45    32    33    1
@<TRIPOS>MOLECULE
*****
 41 45 0 0 0
SMALL
GASTEIGER

@<TRIPOS>ATOM
      1 C          -9.5804  -12.7088   29.4480 C.ar    1  UNL1        0.1649
      2 C          -8.9030  -11.5693   29.9731 C.ar    1  UNL1        0.1226
      3 C          -7.5233  -11.4209   29.6964 C.ar    1  UNL1        0.1430
      4 C          -6.8241  -12.3147   28.9239 C.ar    1  UNL1        0.0329
      5 C          -7.4897  -13.4269   28.4085 C.ar    1  UNL1        0.0819
      6 C          -8.8231  -13.6197   28.6718 C.ar    1  UNL1        0.1337
      7 N          -9.2323  -14.7765   28.1199 N.ar    1  UNL1       -0.2104
      8 C          -8.1146  -15.2580   27.5189 C.ar    1  UNL1        0.2019
      9 N          -7.0285  -14.4531   27.6674 N.ar    1  UNL1       -0.2976
     10 C          -5.6641  -14.6817   27.1919 C.3     1  UNL1        0.1332
     11 C          -5.3967  -11.9008   28.8287 C.3     1  UNL1        0.0709
     12 C          -5.3528  -10.6152   29.7177 C.3     1  UNL1        0.1375
     13 C          -4.4397  -10.8104   30.9356 C.3     1  UNL1        0.0439
     14 C          -4.9121   -9.3874   28.9094 C.3     1  UNL1        0.0439
     15 O          -6.6949  -10.4225   30.1666 O.3     1  UNL1       -0.4823
     16 C          -9.6059  -10.5704   30.8126 C.2     1  UNL1        0.2555
     17 O          -9.1187  -10.2346   31.9264 O.2     1  UNL1       -0.2696
     18 N         -10.8590  -10.0134   30.3835 N.am    1  UNL1       -0.2802
     19 H         -11.4504  -10.5845   29.7379 H       1  UNL1        0.1552
     20 C         -11.4022   -8.7806   30.8859 C.ar    1  UNL1        0.0505
     21 C         -12.5042   -8.8175   31.7517 C.ar    1  UNL1        0.0147
     22 C         -13.0724   -7.6329   32.2236 C.ar    1  UNL1        0.0012
     23 C         -12.5499   -6.3985   31.8321 C.ar    1  UNL1        0.0039
     24 C         -11.4429   -6.3371   30.9687 C.ar    1  UNL1        0.0726
     25 C         -10.8929   -7.5343   30.4760 C.ar    1  UNL1        0.0185
     26 C         -10.9196   -5.0058   30.4907 C.3     1  UNL1        0.4186
     27 F         -11.4113   -4.0041   31.3064 F       1  UNL1       -0.1659
     28 F          -9.5361   -4.9801   30.5287 F       1  UNL1       -0.1659
     29 F         -11.3204   -4.7645   29.1879 F       1  UNL1       -0.1659
     30 C         -11.5236  -13.1938   30.9713 C.3     1  UNL1        0.2525
     31 O         -10.9531  -12.8745   29.7069 O.3     1  UNL1       -0.4696
     32 N          -8.0819  -16.5353   26.8631 N.pl3   1  UNL1       -0.2814
     33 H          -7.6223  -17.3373   27.3467 H       1  UNL1        0.1551
     34 C          -8.8319  -16.8028   25.6666 C.ar    1  UNL1        0.0889
     35 C          -9.7260  -17.8906   25.6100 C.ar    1  UNL1        0.1543
     36 F          -9.9185  -18.6863   26.6922 F       1  UNL1       -0.2028
     37 C         -10.4586  -18.1401   24.4460 C.ar    1  UNL1        0.0310
     38 C         -10.3174  -17.3063   23.3355 C.ar    1  UNL1        0.0033
     39 C          -9.4475  -16.2154   23.3866 C.ar    1  UNL1        0.0128
     40 C          -8.7085  -15.9554   24.5468 C.ar    1  UNL1        0.0733
     41 CL         -7.6050  -14.5854   24.5550 Cl      1  UNL1       -0.0809
@<TRIPOS>BOND
     1    30    31    1
     2    31     1    1
     3     1     2   ar
     4     2    16    1
     5    16    17    2
     6    16    18   am
     7    18    20    1
     8    20    21   ar
     9    21    22   ar
    10    22    23   ar
    11    23    24   ar
    12    24    26    1
    13    26    27    1
    14    26    28    1
    15    26    29    1
    16    24    25   ar
    17     2     3   ar
    18     3     4   ar
    19     4     5   ar
    20     5     6   ar
    21     6     7   ar
    22     7     8   ar
    23     8    32    1
    24    32    34    1
    25    34    35   ar
    26    35    36    1
    27    35    37   ar
    28    37    38   ar
    29    38    39   ar
    30    39    40   ar
    31    40    41    1
    32     8     9   ar
    33     9    10    1
    34     4    11    1
    35    11    12    1
    36    12    13    1
    37    12    14    1
    38    12    15    1
    39     6     1   ar
    40    40    34   ar
    41    25    20   ar
    42    15     3    1
    43     9     5   ar
    44    18    19    1
    45    32    33    1
@<TRIPOS>MOLECULE
*****
 41 45 0 0 0
SMALL
GASTEIGER

@<TRIPOS>ATOM
      1 C          -8.3027  -14.0183   28.1570 C.ar    1  UNL1        0.1649
      2 C          -7.0307  -13.4150   27.9310 C.ar    1  UNL1        0.1226
      3 C          -6.6637  -12.3027   28.7248 C.ar    1  UNL1        0.1430
      4 C          -7.4717  -11.8032   29.7158 C.ar    1  UNL1        0.0329
      5 C          -8.7142  -12.3971   29.9374 C.ar    1  UNL1        0.0819
      6 C          -9.1177  -13.4646   29.1743 C.ar    1  UNL1        0.1337
      7 N         -10.3619  -13.8327   29.5301 N.ar    1  UNL1       -0.2104
      8 C         -10.6808  -12.9653   30.5243 C.ar    1  UNL1        0.2019
      9 N          -9.6915  -12.0760   30.8073 N.ar    1  UNL1       -0.2976
     10 C          -9.7108  -10.9843   31.7808 C.3     1  UNL1        0.1332
     11 C          -6.8236  -10.6270   30.3594 C.3     1  UNL1        0.0709
     12 C          -5.4938  -10.4827   29.5494 C.3     1  UNL1        0.1375
     13 C          -5.4465   -9.1513   28.7878 C.3     1  UNL1        0.0439
     14 C          -4.2645  -10.6245   30.4569 C.3     1  UNL1        0.0439
     15 O          -5.5078  -11.5580   28.6094 O.3     1  UNL1       -0.4823
     16 C          -6.1156  -13.9115   26.8761 C.2     1  UNL1        0.2555
     17 O          -4.8744  -13.7130   26.9796 O.2     1  UNL1       -0.2696
     18 N          -6.6381  -14.5811   25.7171 N.am    1  UNL1       -0.2802
     19 H          -7.6156  -14.3555   25.4234 H       1  UNL1        0.1552
     20 C          -5.8586  -15.4418   24.8691 C.ar    1  UNL1        0.0505
     21 C          -5.0134  -16.3972   25.4507 C.ar    1  UNL1        0.0147
     22 C          -4.2191  -17.2194   24.6494 C.ar    1  UNL1        0.0012
     23 C          -4.2562  -17.0932   23.2592 C.ar    1  UNL1        0.0039
     24 C          -5.0992  -16.1457   22.6540 C.ar    1  UNL1        0.0726
     25 C          -5.8761  -15.3025   23.4689 C.ar    1  UNL1        0.0185
     26 C          -5.0905  -15.9608   21.1572 C.3     1  UNL1        0.4186
     27 F          -5.7750  -17.0059   20.5656 F       1  UNL1       -0.1659
     28 F          -5.6985  -14.7677   20.8066 F       1  UNL1       -0.1659
     29 F          -3.7926  -15.9418   20.6764 F       1  UNL1       -0.1659
     30 C          -8.3976  -16.4883   27.6859 C.3     1  UNL1        0.2525
     31 O          -8.6866  -15.1280   27.3824 O.3     1  UNL1       -0.4696
     32 N         -11.9736  -12.9518   31.1497 N.pl3   1  UNL1       -0.2814
     33 H         -12.7787  -12.5377   30.6315 H       1  UNL1        0.1551
     34 C         -12.2444  -13.6661   32.3672 C.ar    1  UNL1        0.0889
     35 C         -12.1808  -15.0734   32.4012 C.ar    1  UNL1        0.1543
     36 F         -11.8333  -15.7782   31.2949 F       1  UNL1       -0.2028
     37 C         -12.4370  -15.7614   33.5907 C.ar    1  UNL1        0.0310
     38 C         -12.7468  -15.0578   34.7558 C.ar    1  UNL1        0.0033
     39 C         -12.7952  -13.6625   34.7376 C.ar    1  UNL1        0.0128
     40 C         -12.5405  -12.9625   33.5524 C.ar    1  UNL1        0.0733
     41 CL        -12.6398  -11.2063   33.5718 Cl      1  UNL1       -0.0809
@<TRIPOS>BOND
     1    30    31    1
     2    31     1    1
     3     1     2   ar
     4     2    16    1
     5    16    17    2
     6    16    18   am
     7    18    20    1
     8    20    21   ar
     9    21    22   ar
    10    22    23   ar
    11    23    24   ar
    12    24    26    1
    13    26    27    1
    14    26    28    1
    15    26    29    1
    16    24    25   ar
    17     2     3   ar
    18     3     4   ar
    19     4     5   ar
    20     5     6   ar
    21     6     7   ar
    22     7     8   ar
    23     8    32    1
    24    32    34    1
    25    34    35   ar
    26    35    36    1
    27    35    37   ar
    28    37    38   ar
    29    38    39   ar
    30    39    40   ar
    31    40    41    1
    32     8     9   ar
    33     9    10    1
    34     4    11    1
    35    11    12    1
    36    12    13    1
    37    12    14    1
    38    12    15    1
    39     6     1   ar
    40    40    34   ar
    41    25    20   ar
    42    15     3    1
    43     9     5   ar
    44    18    19    1
    45    32    33    1
