@<TRIPOS>MOLECULE
*****
 43 47 0 0 0
SMALL
GASTEIGER

@<TRIPOS>ATOM
      1 C         -28.2900   50.8409   -6.3043 C.ar    1  UNL1        0.0611
      2 C         -28.2556   50.9437   -7.7358 C.ar    1  UNL1        0.0915
      3 C         -29.3504   50.4262   -8.4706 C.ar    1  UNL1        0.1402
      4 C         -30.4280   49.8371   -7.8660 C.ar    1  UNL1        0.0325
      5 C         -30.4500   49.7325   -6.4861 C.ar    1  UNL1        0.0756
      6 N         -31.3972   49.2160   -5.6959 N.ar    1  UNL1       -0.3255
      7 C         -30.9070   49.4185   -4.4471 C.ar    1  UNL1        0.1984
      8 N         -29.6929   50.0282   -4.4220 N.ar    1  UNL1       -0.2136
      9 C         -29.4199   50.2156   -5.7280 C.ar    1  UNL1        0.1024
     10 C         -31.4157   49.3803   -8.8758 C.3     1  UNL1        0.0709
     11 C         -30.7324   49.7996  -10.2202 C.3     1  UNL1        0.1375
     12 C         -31.5838   50.8235  -10.9825 C.3     1  UNL1        0.0439
     13 C         -30.4434   48.5790  -11.1038 C.3     1  UNL1        0.0439
     14 O         -29.4939   50.4093   -9.8431 O.3     1  UNL1       -0.4824
     15 H         -32.2947   48.7651   -5.9818 H       1  UNL1        0.1686
     16 C         -27.0998   51.5069   -8.4690 C.2     1  UNL1        0.2526
     17 O         -26.9994   52.7557   -8.6140 O.2     1  UNL1       -0.2697
     18 N         -26.1002   50.6350   -9.0205 N.am    1  UNL1       -0.2806
     19 H         -26.3526   49.6307   -9.1587 H       1  UNL1        0.1552
     20 C         -24.8086   51.0899   -9.4638 C.ar    1  UNL1        0.0465
     21 C         -23.7772   51.2992   -8.5331 C.ar    1  UNL1        0.0143
     22 C         -22.5091   51.7021   -8.9535 C.ar    1  UNL1        0.0051
     23 C         -22.2331   51.8745  -10.3179 C.ar    1  UNL1        0.0712
     24 C         -23.2638   51.6810  -11.2522 C.ar    1  UNL1        0.0008
     25 C         -24.5477   51.2857  -10.8389 C.ar    1  UNL1       -0.0084
     26 C         -25.6230   51.0716  -11.8701 C.3     1  UNL1        0.0323
     27 C         -20.8748   52.3509  -10.7696 C.3     1  UNL1        0.4186
     28 F         -20.1670   51.3225  -11.3678 F       1  UNL1       -0.1659
     29 F         -20.9994   53.3796  -11.6874 F       1  UNL1       -0.1659
     30 F         -20.1657   52.8076   -9.6744 F       1  UNL1       -0.1659
     31 C         -26.3422   50.5570   -4.6050 C.3     1  UNL1        0.0773
     32 C         -27.2318   51.4227   -5.4424 C.2     1  UNL1        0.1752
     33 O         -27.1042   52.6745   -5.3692 O.2     1  UNL1       -0.2913
     34 N         -31.5840   49.0103   -3.2519 N.pl3   1  UNL1       -0.2816
     35 H         -32.4597   49.5148   -2.9873 H       1  UNL1        0.1551
     36 C         -31.0090   48.0979   -2.3069 C.ar    1  UNL1        0.0889
     37 C         -30.6731   48.5584   -1.0238 C.ar    1  UNL1        0.1543
     38 F         -30.8721   49.8585   -0.6905 F       1  UNL1       -0.2028
     39 C         -30.1121   47.6861   -0.0864 C.ar    1  UNL1        0.0310
     40 C         -29.8965   46.3466   -0.4171 C.ar    1  UNL1        0.0033
     41 C         -30.2511   45.8726   -1.6823 C.ar    1  UNL1        0.0128
     42 C         -30.8136   46.7379   -2.6285 C.ar    1  UNL1        0.0733
     43 CL        -31.3213   46.0761   -4.1780 Cl      1  UNL1       -0.0809
@<TRIPOS>BOND
     1    31    32    1
     2    32    33    2
     3    32     1    1
     4     1     2   ar
     5     2    16    1
     6    16    17    2
     7    16    18   am
     8    18    20    1
     9    20    21   ar
    10    21    22   ar
    11    22    23   ar
    12    23    27    1
    13    27    28    1
    14    27    29    1
    15    27    30    1
    16    23    24   ar
    17    24    25   ar
    18    25    26    1
    19     2     3   ar
    20     3     4   ar
    21     4     5   ar
    22     5     6   ar
    23     6     7   ar
    24     7    34    1
    25    34    36    1
    26    36    37   ar
    27    37    38    1
    28    37    39   ar
    29    39    40   ar
    30    40    41   ar
    31    41    42   ar
    32    42    43    1
    33     7     8   ar
    34     8     9   ar
    35     4    10    1
    36    10    11    1
    37    11    12    1
    38    11    13    1
    39    11    14    1
    40     9     1   ar
    41    25    20   ar
    42    14     3    1
    43     9     5   ar
    44    42    36   ar
    45    18    19    1
    46     6    15    1
    47    34    35    1
@<TRIPOS>MOLECULE
*****
 43 47 0 0 0
SMALL
GASTEIGER

@<TRIPOS>ATOM
      1 C         -28.5796   49.9903   -6.5343 C.ar    1  UNL1        0.0611
      2 C         -28.1965   49.7640   -7.8992 C.ar    1  UNL1        0.0915
      3 C         -28.7391   48.6402   -8.5692 C.ar    1  UNL1        0.1402
      4 C         -29.6070   47.7721   -7.9632 C.ar    1  UNL1        0.0325
      5 C         -29.9642   47.9908   -6.6440 C.ar    1  UNL1        0.0756
      6 N         -30.7989   47.2886   -5.8704 N.ar    1  UNL1       -0.3255
      7 C         -30.7977   47.9790   -4.7024 C.ar    1  UNL1        0.1984
      8 N         -29.9928   49.0737   -4.7082 N.ar    1  UNL1       -0.2136
      9 C         -29.4705   49.0604   -5.9502 C.ar    1  UNL1        0.1024
     10 C         -30.0049   46.6868   -8.8947 C.3     1  UNL1        0.0709
     11 C         -29.2081   47.0546  -10.1908 C.3     1  UNL1        0.1375
     12 C         -30.1546   47.3529  -11.3611 C.3     1  UNL1        0.0439
     13 C         -28.2187   45.9455  -10.5713 C.3     1  UNL1        0.0439
     14 O         -28.4791   48.2420   -9.8647 O.3     1  UNL1       -0.4824
     15 H         -31.3201   46.4176   -6.1155 H       1  UNL1        0.1686
     16 C         -27.2145   50.6169   -8.6056 C.2     1  UNL1        0.2526
     17 O         -27.4112   51.8599   -8.6885 O.2     1  UNL1       -0.2697
     18 N         -26.0461   50.0311   -9.2014 N.am    1  UNL1       -0.2806
     19 H         -26.0582   49.0034   -9.3888 H       1  UNL1        0.1552
     20 C         -24.9029   50.7968   -9.6238 C.ar    1  UNL1        0.0465
     21 C         -23.8858   51.1096   -8.7065 C.ar    1  UNL1        0.0143
     22 C         -22.7536   51.8173   -9.1120 C.ar    1  UNL1        0.0051
     23 C         -22.5964   52.2014  -10.4519 C.ar    1  UNL1        0.0712
     24 C         -23.6163   51.9044  -11.3707 C.ar    1  UNL1        0.0008
     25 C         -24.7659   51.2017  -10.9709 C.ar    1  UNL1       -0.0084
     26 C         -25.8305   50.8866  -11.9872 C.3     1  UNL1        0.0323
     27 C         -21.3929   53.0030  -10.8820 C.3     1  UNL1        0.4186
     28 F         -21.0572   53.9403   -9.9201 F       1  UNL1       -0.1659
     29 F         -20.3007   52.1755  -11.0776 F       1  UNL1       -0.1659
     30 F         -21.6810   53.6563  -12.0656 F       1  UNL1       -0.1659
     31 C         -26.8934   51.1480   -4.9285 C.3     1  UNL1        0.0773
     32 C         -28.1300   51.1811   -5.7721 C.2     1  UNL1        0.1752
     33 O         -28.8247   52.2326   -5.7897 O.2     1  UNL1       -0.2913
     34 N         -31.5523   47.5892   -3.5482 N.pl3   1  UNL1       -0.2816
     35 H         -32.5647   47.3658   -3.6763 H       1  UNL1        0.1551
     36 C         -31.0395   47.6950   -2.2133 C.ar    1  UNL1        0.0889
     37 C         -30.5000   46.5573   -1.5922 C.ar    1  UNL1        0.1543
     38 F         -30.4841   45.3666   -2.2423 F       1  UNL1       -0.2028
     39 C         -29.9939   46.6377   -0.2915 C.ar    1  UNL1        0.0310
     40 C         -30.0086   47.8553    0.3919 C.ar    1  UNL1        0.0033
     41 C         -30.5195   48.9987   -0.2267 C.ar    1  UNL1        0.0128
     42 C         -31.0290   48.9291   -1.5291 C.ar    1  UNL1        0.0733
     43 CL        -31.5837   50.4121   -2.2967 Cl      1  UNL1       -0.0809
@<TRIPOS>BOND
     1    31    32    1
     2    32    33    2
     3    32     1    1
     4     1     2   ar
     5     2    16    1
     6    16    17    2
     7    16    18   am
     8    18    20    1
     9    20    21   ar
    10    21    22   ar
    11    22    23   ar
    12    23    27    1
    13    27    28    1
    14    27    29    1
    15    27    30    1
    16    23    24   ar
    17    24    25   ar
    18    25    26    1
    19     2     3   ar
    20     3     4   ar
    21     4     5   ar
    22     5     6   ar
    23     6     7   ar
    24     7    34    1
    25    34    36    1
    26    36    37   ar
    27    37    38    1
    28    37    39   ar
    29    39    40   ar
    30    40    41   ar
    31    41    42   ar
    32    42    43    1
    33     7     8   ar
    34     8     9   ar
    35     4    10    1
    36    10    11    1
    37    11    12    1
    38    11    13    1
    39    11    14    1
    40     9     1   ar
    41    25    20   ar
    42    14     3    1
    43     9     5   ar
    44    42    36   ar
    45    18    19    1
    46     6    15    1
    47    34    35    1
@<TRIPOS>MOLECULE
*****
 43 47 0 0 0
SMALL
GASTEIGER

@<TRIPOS>ATOM
      1 C         -26.1908   50.4812   -8.6149 C.ar    1  UNL1        0.0611
      2 C         -27.6134   50.3905   -8.7856 C.ar    1  UNL1        0.0915
      3 C         -28.1600   50.7389  -10.0449 C.ar    1  UNL1        0.1402
      4 C         -27.3839   51.1554  -11.0928 C.ar    1  UNL1        0.0325
      5 C         -26.0141   51.2501  -10.9181 C.ar    1  UNL1        0.0756
      6 N         -25.0763   51.6139  -11.7993 N.ar    1  UNL1       -0.3255
      7 C         -23.9218   51.4831  -11.0987 C.ar    1  UNL1        0.1984
      8 N         -24.0968   51.0644   -9.8179 N.ar    1  UNL1       -0.2136
      9 C         -25.4338   50.9257   -9.7235 C.ar    1  UNL1        0.1024
     10 C         -28.2202   51.4612  -12.2806 C.3     1  UNL1        0.0709
     11 C         -29.6632   51.1556  -11.7567 C.3     1  UNL1        0.1375
     12 C         -30.3157   50.0176  -12.5526 C.3     1  UNL1        0.0439
     13 C         -30.5469   52.4094  -11.7922 C.3     1  UNL1        0.0439
     14 O         -29.4941   50.7392  -10.3982 O.3     1  UNL1       -0.4824
     15 H         -25.2110   51.9246  -12.7871 H       1  UNL1        0.1686
     16 C         -28.5277   50.0119   -7.6849 C.2     1  UNL1        0.2526
     17 O         -29.4198   49.1428   -7.8839 O.2     1  UNL1       -0.2697
     18 N         -28.4054   50.6371   -6.3975 N.am    1  UNL1       -0.2806
     19 H         -27.8885   51.5433   -6.3432 H       1  UNL1        0.1552
     20 C         -29.0246   50.1226   -5.2043 C.ar    1  UNL1        0.0465
     21 C         -28.4534   49.0318   -4.5278 C.ar    1  UNL1        0.0143
     22 C         -29.0213   48.5482   -3.3484 C.ar    1  UNL1        0.0051
     23 C         -30.1559   49.1643   -2.8000 C.ar    1  UNL1        0.0712
     24 C         -30.7401   50.2460   -3.4792 C.ar    1  UNL1        0.0008
     25 C         -30.1828   50.7343   -4.6736 C.ar    1  UNL1       -0.0084
     26 C         -30.8267   51.9060   -5.3648 C.3     1  UNL1        0.0323
     27 C         -30.7948   48.6158   -1.5483 C.3     1  UNL1        0.4186
     28 F         -29.8307   48.2125   -0.6404 F       1  UNL1       -0.1659
     29 F         -31.5830   49.5783   -0.9414 F       1  UNL1       -0.1659
     30 F         -31.5839   47.5301   -1.8788 F       1  UNL1       -0.1659
     31 C         -25.1201   48.6384   -7.1251 C.3     1  UNL1        0.0773
     32 C         -25.5147   50.0632   -7.3623 C.2     1  UNL1        0.1752
     33 O         -25.3087   50.9097   -6.4514 O.2     1  UNL1       -0.2913
     34 N         -22.6274   51.7792  -11.6375 N.pl3   1  UNL1       -0.2816
     35 H         -22.4024   51.4274  -12.5952 H       1  UNL1        0.1551
     36 C         -21.5701   52.3451  -10.8515 C.ar    1  UNL1        0.0889
     37 C         -20.4181   51.5833  -10.5989 C.ar    1  UNL1        0.1543
     38 F         -20.3175   50.3175  -11.0770 F       1  UNL1       -0.2028
     39 C         -19.3747   52.1153   -9.8357 C.ar    1  UNL1        0.0310
     40 C         -19.4666   53.4147   -9.3325 C.ar    1  UNL1        0.0033
     41 C         -20.5973   54.1900   -9.5999 C.ar    1  UNL1        0.0128
     42 C         -21.6480   53.6667  -10.3632 C.ar    1  UNL1        0.0733
     43 CL        -23.0131   54.7099  -10.7440 Cl      1  UNL1       -0.0809
@<TRIPOS>BOND
     1    31    32    1
     2    32    33    2
     3    32     1    1
     4     1     2   ar
     5     2    16    1
     6    16    17    2
     7    16    18   am
     8    18    20    1
     9    20    21   ar
    10    21    22   ar
    11    22    23   ar
    12    23    27    1
    13    27    28    1
    14    27    29    1
    15    27    30    1
    16    23    24   ar
    17    24    25   ar
    18    25    26    1
    19     2     3   ar
    20     3     4   ar
    21     4     5   ar
    22     5     6   ar
    23     6     7   ar
    24     7    34    1
    25    34    36    1
    26    36    37   ar
    27    37    38    1
    28    37    39   ar
    29    39    40   ar
    30    40    41   ar
    31    41    42   ar
    32    42    43    1
    33     7     8   ar
    34     8     9   ar
    35     4    10    1
    36    10    11    1
    37    11    12    1
    38    11    13    1
    39    11    14    1
    40     9     1   ar
    41    25    20   ar
    42    14     3    1
    43     9     5   ar
    44    42    36   ar
    45    18    19    1
    46     6    15    1
    47    34    35    1
@<TRIPOS>MOLECULE
*****
 43 47 0 0 0
SMALL
GASTEIGER

@<TRIPOS>ATOM
      1 C         -29.6082   50.1229  -11.5720 C.ar    1  UNL1        0.0611
      2 C         -29.5159   49.3784  -10.3480 C.ar    1  UNL1        0.0915
      3 C         -29.8874   48.0117  -10.3662 C.ar    1  UNL1        0.1402
      4 C         -30.3273   47.3851  -11.5010 C.ar    1  UNL1        0.0325
      5 C         -30.4233   48.1115  -12.6752 C.ar    1  UNL1        0.0756
      6 N         -30.8078   47.7026  -13.8890 N.ar    1  UNL1       -0.3255
      7 C         -30.6672   48.8153  -14.6526 C.ar    1  UNL1        0.1984
      8 N         -30.2225   49.9022  -13.9691 N.ar    1  UNL1       -0.2136
      9 C         -30.0773   49.4335  -12.7142 C.ar    1  UNL1        0.1024
     10 C         -30.6537   45.9632  -11.2265 C.3     1  UNL1        0.0709
     11 C         -30.3327   45.8390   -9.6995 C.3     1  UNL1        0.1375
     12 C         -29.2084   44.8259   -9.4468 C.3     1  UNL1        0.0439
     13 C         -31.5839   45.4626   -8.8950 C.3     1  UNL1        0.0439
     14 O         -29.8901   47.1389   -9.2972 O.3     1  UNL1       -0.4824
     15 H         -31.1376   46.7527  -14.1707 H       1  UNL1        0.1686
     16 C         -29.1124   49.9965   -9.0652 C.2     1  UNL1        0.2526
     17 O         -29.9729   50.1803   -8.1615 O.2     1  UNL1       -0.2697
     18 N         -27.7483   50.3931   -8.8523 N.am    1  UNL1       -0.2806
     19 H         -27.1406   50.5180   -9.6929 H       1  UNL1        0.1552
     20 C         -27.2060   50.7035   -7.5556 C.ar    1  UNL1        0.0465
     21 C         -27.6245   51.8588   -6.8746 C.ar    1  UNL1        0.0143
     22 C         -27.1364   52.1508   -5.6003 C.ar    1  UNL1        0.0051
     23 C         -26.2423   51.2777   -4.9633 C.ar    1  UNL1        0.0712
     24 C         -25.8089   50.1285   -5.6448 C.ar    1  UNL1        0.0008
     25 C         -26.2856   49.8304   -6.9329 C.ar    1  UNL1       -0.0084
     26 C         -25.8116   48.5811   -7.6257 C.3     1  UNL1        0.0323
     27 C         -25.6818   51.6142   -3.6037 C.3     1  UNL1        0.4186
     28 F         -24.3112   51.4221   -3.5756 F       1  UNL1       -0.1659
     29 F         -25.9387   52.9363   -3.2843 F       1  UNL1       -0.1659
     30 F         -26.2700   50.7989   -2.6549 F       1  UNL1       -0.1659
     31 C         -30.1521   52.6504  -11.8508 C.3     1  UNL1        0.0773
     32 C         -29.1678   51.5358  -11.6752 C.2     1  UNL1        0.1752
     33 O         -27.9373   51.8087  -11.6657 O.2     1  UNL1       -0.2913
     34 N         -30.9785   48.8642  -16.0505 N.pl3   1  UNL1       -0.2816
     35 H         -31.8129   49.4179  -16.3483 H       1  UNL1        0.1551
     36 C         -30.3311   48.0291  -17.0199 C.ar    1  UNL1        0.0889
     37 C         -30.6547   46.6641  -17.0766 C.ar    1  UNL1        0.1543
     38 F         -31.5553   46.1386  -16.2085 F       1  UNL1       -0.2028
     39 C         -30.0364   45.8316  -18.0141 C.ar    1  UNL1        0.0310
     40 C         -29.1035   46.3574  -18.9103 C.ar    1  UNL1        0.0033
     41 C         -28.7938   47.7191  -18.8792 C.ar    1  UNL1        0.0128
     42 C         -29.4072   48.5616  -17.9441 C.ar    1  UNL1        0.0733
     43 CL        -29.0482   50.2834  -17.9990 Cl      1  UNL1       -0.0809
@<TRIPOS>BOND
     1    31    32    1
     2    32    33    2
     3    32     1    1
     4     1     2   ar
     5     2    16    1
     6    16    17    2
     7    16    18   am
     8    18    20    1
     9    20    21   ar
    10    21    22   ar
    11    22    23   ar
    12    23    27    1
    13    27    28    1
    14    27    29    1
    15    27    30    1
    16    23    24   ar
    17    24    25   ar
    18    25    26    1
    19     2     3   ar
    20     3     4   ar
    21     4     5   ar
    22     5     6   ar
    23     6     7   ar
    24     7    34    1
    25    34    36    1
    26    36    37   ar
    27    37    38    1
    28    37    39   ar
    29    39    40   ar
    30    40    41   ar
    31    41    42   ar
    32    42    43    1
    33     7     8   ar
    34     8     9   ar
    35     4    10    1
    36    10    11    1
    37    11    12    1
    38    11    13    1
    39    11    14    1
    40     9     1   ar
    41    25    20   ar
    42    14     3    1
    43     9     5   ar
    44    42    36   ar
    45    18    19    1
    46     6    15    1
    47    34    35    1
@<TRIPOS>MOLECULE
*****
 43 47 0 0 0
SMALL
GASTEIGER

@<TRIPOS>ATOM
      1 C         -26.9588   50.5906   -7.0506 C.ar    1  UNL1        0.0611
      2 C         -27.7765   49.4130   -6.9744 C.ar    1  UNL1        0.0915
      3 C         -27.8853   48.5979   -8.1276 C.ar    1  UNL1        0.1402
      4 C         -27.2432   48.8940   -9.2998 C.ar    1  UNL1        0.0325
      5 C         -26.4645   50.0361   -9.3691 C.ar    1  UNL1        0.0756
      6 N         -25.7447   50.5032  -10.3948 N.ar    1  UNL1       -0.3255
      7 C         -25.1623   51.6180   -9.8859 C.ar    1  UNL1        0.1984
      8 N         -25.4937   51.8737   -8.5931 N.ar    1  UNL1       -0.2136
      9 C         -26.3244   50.8583   -8.2858 C.ar    1  UNL1        0.1024
     10 C         -27.5431   47.8762  -10.3380 C.3     1  UNL1        0.0709
     11 C         -28.4992   46.8985   -9.5763 C.3     1  UNL1        0.1375
     12 C         -27.8928   45.4927   -9.4743 C.3     1  UNL1        0.0439
     13 C         -29.8811   46.8390  -10.2403 C.3     1  UNL1        0.0439
     14 O         -28.6340   47.4463   -8.2612 O.3     1  UNL1       -0.4824
     15 H         -25.6596   50.1001  -11.3544 H       1  UNL1        0.1686
     16 C         -28.5546   49.0573   -5.7667 C.2     1  UNL1        0.2526
     17 O         -29.8085   49.1928   -5.7682 O.2     1  UNL1       -0.2697
     18 N         -27.8844   48.5670   -4.5945 N.am    1  UNL1       -0.2806
     19 H         -26.8601   48.7521   -4.5060 H       1  UNL1        0.1552
     20 C         -28.5643   47.9116   -3.5083 C.ar    1  UNL1        0.0465
     21 C         -29.5371   48.6022   -2.7663 C.ar    1  UNL1        0.0143
     22 C         -30.2317   47.9666   -1.7364 C.ar    1  UNL1        0.0051
     23 C         -29.9928   46.6155   -1.4448 C.ar    1  UNL1        0.0712
     24 C         -29.0113   45.9237   -2.1733 C.ar    1  UNL1        0.0008
     25 C         -28.2980   46.5572   -3.2054 C.ar    1  UNL1       -0.0084
     26 C         -27.2651   45.7791   -3.9757 C.3     1  UNL1        0.0323
     27 C         -30.7129   45.9399   -0.3042 C.3     1  UNL1        0.4186
     28 F         -31.4310   44.8458   -0.7552 F       1  UNL1       -0.1659
     29 F         -29.8109   45.5005    0.6496 F       1  UNL1       -0.1659
     30 F         -31.5840   46.8400    0.2805 F       1  UNL1       -0.1659
     31 C         -25.7962   51.0509   -4.7707 C.3     1  UNL1        0.0773
     32 C         -26.7169   51.4647   -5.8766 C.2     1  UNL1        0.1752
     33 O         -27.3335   52.5592   -5.7752 O.2     1  UNL1       -0.2913
     34 N         -24.2928   52.4740  -10.6373 N.pl3   1  UNL1       -0.2816
     35 H         -24.6547   52.8798  -11.5294 H       1  UNL1        0.1551
     36 C         -22.8999   52.6262  -10.3328 C.ar    1  UNL1        0.0889
     37 C         -22.3898   52.0669   -9.1504 C.ar    1  UNL1        0.1543
     38 F         -23.2121   51.4077   -8.2960 F       1  UNL1       -0.2028
     39 C         -21.0349   52.2025   -8.8340 C.ar    1  UNL1        0.0310
     40 C         -20.1777   52.8831   -9.7012 C.ar    1  UNL1        0.0033
     41 C         -20.6702   53.4208  -10.8926 C.ar    1  UNL1        0.0128
     42 C         -22.0255   53.2907  -11.2189 C.ar    1  UNL1        0.0733
     43 CL        -22.5817   53.9106  -12.7690 Cl      1  UNL1       -0.0809
@<TRIPOS>BOND
     1    31    32    1
     2    32    33    2
     3    32     1    1
     4     1     2   ar
     5     2    16    1
     6    16    17    2
     7    16    18   am
     8    18    20    1
     9    20    21   ar
    10    21    22   ar
    11    22    23   ar
    12    23    27    1
    13    27    28    1
    14    27    29    1
    15    27    30    1
    16    23    24   ar
    17    24    25   ar
    18    25    26    1
    19     2     3   ar
    20     3     4   ar
    21     4     5   ar
    22     5     6   ar
    23     6     7   ar
    24     7    34    1
    25    34    36    1
    26    36    37   ar
    27    37    38    1
    28    37    39   ar
    29    39    40   ar
    30    40    41   ar
    31    41    42   ar
    32    42    43    1
    33     7     8   ar
    34     8     9   ar
    35     4    10    1
    36    10    11    1
    37    11    12    1
    38    11    13    1
    39    11    14    1
    40     9     1   ar
    41    25    20   ar
    42    14     3    1
    43     9     5   ar
    44    42    36   ar
    45    18    19    1
    46     6    15    1
    47    34    35    1
