@<TRIPOS>MOLECULE
*****
 50 55 0 0 0
SMALL
GASTEIGER

@<TRIPOS>ATOM
      1 O         -61.2717  -45.7674  -28.1422 O.2     1  UNL1       -0.2701
      2 C         -62.4153  -45.6196  -27.6301 C.2     1  UNL1        0.2483
      3 N         -63.5090  -46.4333  -28.0821 N.am    1  UNL1       -0.2945
      4 H         -64.3605  -46.5085  -27.4802 H       1  UNL1        0.1501
      5 C         -62.6014  -44.6296  -26.5453 C.ar    1  UNL1        0.0808
      6 C         -62.6781  -45.0670  -25.2131 C.ar    1  UNL1        0.0080
      7 C         -62.8563  -44.1519  -24.1729 C.ar    1  UNL1        0.0148
      8 C         -62.9503  -42.7749  -24.4396 C.ar    1  UNL1        0.0502
      9 C         -62.8596  -42.3365  -25.7720 C.ar    1  UNL1        0.0443
     10 C         -62.6816  -43.2502  -26.8155 C.ar    1  UNL1        0.1457
     11 F         -62.5370  -42.7754  -28.0782 F       1  UNL1       -0.2040
     12 N         -63.1394  -41.8264  -23.3658 N.pl3   1  UNL1       -0.3040
     13 C         -62.1446  -41.7172  -22.2893 C.3     1  UNL1        0.1123
     14 C         -62.0747  -40.2814  -21.7573 C.3     1  UNL1        0.1136
     15 N         -63.4104  -39.7461  -21.4438 N.pl3   1  UNL1       -0.2897
     16 C         -64.6084  -40.4728  -21.8881 C.3     1  UNL1        0.1136
     17 C         -64.3932  -41.0607  -23.2859 C.3     1  UNL1        0.1123
     18 C         -63.5527  -38.5908  -20.5864 C.ar    1  UNL1        0.1327
     19 C         -64.5136  -38.5521  -19.5636 C.ar    1  UNL1        0.0343
     20 C         -64.6203  -37.4187  -18.7578 C.ar    1  UNL1        0.0091
     21 C         -63.7728  -36.3162  -18.9605 C.ar    1  UNL1        0.0999
     22 C         -62.8172  -36.3957  -19.9950 C.ar    1  UNL1        0.1436
     23 CL        -61.7015  -35.0796  -20.3358 Cl      1  UNL1       -0.0613
     24 N         -62.7384  -37.5139  -20.7636 N.ar    1  UNL1       -0.2193
     25 C         -63.8816  -35.0834  -18.0902 C.3     1  UNL1        0.4208
     26 F         -62.6727  -34.4116  -18.0840 F       1  UNL1       -0.1658
     27 F         -64.8641  -34.2477  -18.5895 F       1  UNL1       -0.1658
     28 F         -64.2074  -35.4046  -16.7836 F       1  UNL1       -0.1658
     29 C         -63.3893  -47.3191  -29.2457 C.3     1  UNL1        0.1535
     30 C         -64.1659  -48.5970  -29.0175 C.2     1  UNL1        0.2443
     31 O         -64.9314  -49.0245  -29.9237 O.2     1  UNL1       -0.2730
     32 N         -63.9532  -49.4110  -27.8525 N.am    1  UNL1       -0.2825
     33 H         -64.1625  -50.4322  -27.9269 H       1  UNL1        0.1549
     34 C         -63.3501  -48.9370  -26.6411 C.ar    1  UNL1        0.0535
     35 C         -61.9558  -48.8675  -26.5397 C.ar    1  UNL1        0.0353
     36 C         -61.3745  -48.4178  -25.3515 C.ar    1  UNL1        0.1002
     37 N         -62.1594  -48.0705  -24.2970 N.ar    1  UNL1       -0.2422
     38 C         -63.5152  -48.1530  -24.3604 C.ar    1  UNL1        0.1002
     39 C         -64.1357  -48.5986  -25.5299 C.ar    1  UNL1        0.0353
     40 C         -63.9055  -46.6166  -30.5129 C.3     1  UNL1        0.0569
     41 C         -64.6195  -45.3428  -30.1677 C.ar    1  UNL1       -0.0017
     42 C         -65.7788  -45.2173  -29.4087 C.ar    1  UNL1        0.0681
     43 N         -66.0822  -43.9118  -29.2241 N.ar    1  UNL1       -0.3523
     44 C         -65.1187  -43.2139  -29.8508 C.ar    1  UNL1        0.0563
     45 C         -64.9863  -41.8276  -29.9188 C.ar    1  UNL1        0.0170
     46 C         -63.8782  -41.3061  -30.6123 C.ar    1  UNL1        0.0015
     47 C         -62.9369  -42.1718  -31.2127 C.ar    1  UNL1        0.0001
     48 C         -63.0959  -43.5665  -31.1264 C.ar    1  UNL1        0.0012
     49 C         -64.2059  -44.0531  -30.4357 C.ar    1  UNL1        0.0131
     50 H         -66.8916  -43.5283  -28.6871 H       1  UNL1        0.1660
@<TRIPOS>BOND
     1     1     2    2
     2     2     3   am
     3     3    29    1
     4    29    40    1
     5    40    41    1
     6    41    42   ar
     7    42    43   ar
     8    43    44   ar
     9    44    45   ar
    10    45    46   ar
    11    46    47   ar
    12    47    48   ar
    13    48    49   ar
    14    29    30    1
    15    30    31    2
    16    30    32   am
    17    32    34    1
    18    34    35   ar
    19    35    36   ar
    20    36    37   ar
    21    37    38   ar
    22    38    39   ar
    23     2     5    1
    24     5     6   ar
    25     6     7   ar
    26     7     8   ar
    27     8    12    1
    28    12    13    1
    29    13    14    1
    30    14    15    1
    31    15    18    1
    32    18    19   ar
    33    19    20   ar
    34    20    21   ar
    35    21    25    1
    36    25    26    1
    37    25    27    1
    38    25    28    1
    39    21    22   ar
    40    22    23    1
    41    22    24   ar
    42    15    16    1
    43    16    17    1
    44     8     9   ar
    45     9    10   ar
    46    10    11    1
    47    49    41   ar
    48    39    34   ar
    49    10     5   ar
    50    49    44   ar
    51    17    12    1
    52    24    18   ar
    53     3     4    1
    54    43    50    1
    55    32    33    1
@<TRIPOS>MOLECULE
*****
 50 55 0 0 0
SMALL
GASTEIGER

@<TRIPOS>ATOM
      1 O         -66.4831  -39.2806  -21.2060 O.2     1  UNL1       -0.2701
      2 C         -65.4233  -39.9558  -21.3192 C.2     1  UNL1        0.2483
      3 N         -64.6527  -40.2739  -20.1496 N.am    1  UNL1       -0.2945
      4 H         -63.9534  -41.0489  -20.2053 H       1  UNL1        0.1501
      5 C         -65.0103  -40.4381  -22.6565 C.ar    1  UNL1        0.0808
      6 C         -63.7660  -41.0699  -22.8119 C.ar    1  UNL1        0.0080
      7 C         -63.3534  -41.5307  -24.0643 C.ar    1  UNL1        0.0148
      8 C         -64.1817  -41.3810  -25.1902 C.ar    1  UNL1        0.0502
      9 C         -65.4331  -40.7609  -25.0314 C.ar    1  UNL1        0.0443
     10 C         -65.8486  -40.2982  -23.7789 C.ar    1  UNL1        0.1457
     11 F         -67.0898  -39.7630  -23.6623 F       1  UNL1       -0.2040
     12 N         -63.7554  -41.8527  -26.4880 N.pl3   1  UNL1       -0.3040
     13 C         -64.5014  -41.4738  -27.6964 C.3     1  UNL1        0.1123
     14 C         -63.5637  -41.3722  -28.9046 C.3     1  UNL1        0.1136
     15 N         -62.7055  -42.5618  -29.0356 N.pl3   1  UNL1       -0.2897
     16 C         -62.6366  -43.5342  -27.9353 C.3     1  UNL1        0.1136
     17 C         -62.6480  -42.8168  -26.5822 C.3     1  UNL1        0.1123
     18 C         -62.0418  -42.8510  -30.2870 C.ar    1  UNL1        0.1327
     19 C         -62.6064  -42.4805  -31.5178 C.ar    1  UNL1        0.0343
     20 C         -61.9353  -42.7778  -32.7038 C.ar    1  UNL1        0.0091
     21 C         -60.6981  -43.4437  -32.6763 C.ar    1  UNL1        0.0999
     22 C         -60.1617  -43.7948  -31.4198 C.ar    1  UNL1        0.1436
     23 CL        -58.6190  -44.6250  -31.2644 Cl      1  UNL1       -0.0613
     24 N         -60.8403  -43.4915  -30.2819 N.ar    1  UNL1       -0.2193
     25 C         -59.9634  -43.7693  -33.9582 C.3     1  UNL1        0.4208
     26 F         -60.8550  -43.7750  -35.0155 F       1  UNL1       -0.1658
     27 F         -58.9888  -42.8156  -34.1899 F       1  UNL1       -0.1658
     28 F         -59.3517  -45.0097  -33.8984 F       1  UNL1       -0.1658
     29 C         -64.9584  -39.6948  -18.8367 C.3     1  UNL1        0.1535
     30 C         -65.1780  -40.7893  -17.8159 C.2     1  UNL1        0.2443
     31 O         -65.8668  -40.5459  -16.7880 O.2     1  UNL1       -0.2730
     32 N         -64.7388  -42.1375  -18.0494 N.am    1  UNL1       -0.2825
     33 H         -65.2525  -42.9080  -17.5649 H       1  UNL1        0.1549
     34 C         -63.7308  -42.4999  -19.0024 C.ar    1  UNL1        0.0535
     35 C         -62.5121  -41.8116  -19.0209 C.ar    1  UNL1        0.0353
     36 C         -61.5395  -42.1607  -19.9612 C.ar    1  UNL1        0.1002
     37 N         -61.7862  -43.1479  -20.8631 N.ar    1  UNL1       -0.2422
     38 C         -62.9711  -43.8146  -20.8834 C.ar    1  UNL1        0.1002
     39 C         -63.9700  -43.4954  -19.9606 C.ar    1  UNL1        0.0353
     40 C         -63.8159  -38.7747  -18.3744 C.3     1  UNL1        0.0569
     41 C         -63.9969  -37.3841  -18.9081 C.ar    1  UNL1       -0.0017
     42 C         -64.9683  -36.4648  -18.5247 C.ar    1  UNL1        0.0681
     43 N         -64.7692  -35.2809  -19.1485 N.ar    1  UNL1       -0.3523
     44 C         -63.6750  -35.4429  -19.9131 C.ar    1  UNL1        0.0563
     45 C         -63.0622  -34.4901  -20.7260 C.ar    1  UNL1        0.0170
     46 C         -61.9019  -34.8710  -21.4255 C.ar    1  UNL1        0.0015
     47 C         -61.3846  -36.1793  -21.2961 C.ar    1  UNL1        0.0001
     48 C         -62.0236  -37.1188  -20.4674 C.ar    1  UNL1        0.0012
     49 C         -63.1734  -36.7128  -19.7899 C.ar    1  UNL1        0.0131
     50 H         -65.3412  -34.4139  -19.0408 H       1  UNL1        0.1660
@<TRIPOS>BOND
     1     1     2    2
     2     2     3   am
     3     3    29    1
     4    29    40    1
     5    40    41    1
     6    41    42   ar
     7    42    43   ar
     8    43    44   ar
     9    44    45   ar
    10    45    46   ar
    11    46    47   ar
    12    47    48   ar
    13    48    49   ar
    14    29    30    1
    15    30    31    2
    16    30    32   am
    17    32    34    1
    18    34    35   ar
    19    35    36   ar
    20    36    37   ar
    21    37    38   ar
    22    38    39   ar
    23     2     5    1
    24     5     6   ar
    25     6     7   ar
    26     7     8   ar
    27     8    12    1
    28    12    13    1
    29    13    14    1
    30    14    15    1
    31    15    18    1
    32    18    19   ar
    33    19    20   ar
    34    20    21   ar
    35    21    25    1
    36    25    26    1
    37    25    27    1
    38    25    28    1
    39    21    22   ar
    40    22    23    1
    41    22    24   ar
    42    15    16    1
    43    16    17    1
    44     8     9   ar
    45     9    10   ar
    46    10    11    1
    47    49    41   ar
    48    39    34   ar
    49    10     5   ar
    50    49    44   ar
    51    17    12    1
    52    24    18   ar
    53     3     4    1
    54    43    50    1
    55    32    33    1
@<TRIPOS>MOLECULE
*****
 50 55 0 0 0
SMALL
GASTEIGER

@<TRIPOS>ATOM
      1 O         -60.3912  -47.8412  -24.2696 O.2     1  UNL1       -0.2701
      2 C         -61.5190  -47.2786  -24.3272 C.2     1  UNL1        0.2483
      3 N         -62.5783  -47.8819  -25.0865 N.am    1  UNL1       -0.2945
      4 H         -63.5616  -47.5759  -24.9067 H       1  UNL1        0.1501
      5 C         -61.7400  -46.0195  -23.5807 C.ar    1  UNL1        0.0808
      6 C         -62.1833  -44.8763  -24.2651 C.ar    1  UNL1        0.0080
      7 C         -62.3962  -43.6762  -23.5827 C.ar    1  UNL1        0.0148
      8 C         -62.1817  -43.5940  -22.1959 C.ar    1  UNL1        0.0502
      9 C         -61.7513  -44.7423  -21.5090 C.ar    1  UNL1        0.0443
     10 C         -61.5370  -45.9450  -22.1896 C.ar    1  UNL1        0.1457
     11 F         -61.1821  -47.0423  -21.4750 F       1  UNL1       -0.2040
     12 N         -62.3966  -42.3525  -21.4882 N.pl3   1  UNL1       -0.3040
     13 C         -61.5048  -41.2063  -21.7141 C.3     1  UNL1        0.1123
     14 C         -62.2647  -39.8854  -21.5493 C.3     1  UNL1        0.1136
     15 N         -63.0392  -39.8496  -20.2972 N.pl3   1  UNL1       -0.2897
     16 C         -63.2187  -41.0825  -19.5170 C.3     1  UNL1        0.1136
     17 C         -63.4333  -42.2807  -20.4466 C.3     1  UNL1        0.1123
     18 C         -63.5039  -38.5905  -19.7602 C.ar    1  UNL1        0.1327
     19 C         -64.5261  -38.5370  -18.7994 C.ar    1  UNL1        0.0343
     20 C         -64.9473  -37.3024  -18.3059 C.ar    1  UNL1        0.0091
     21 C         -64.3556  -36.1119  -18.7616 C.ar    1  UNL1        0.0999
     22 C         -63.3284  -36.2078  -19.7236 C.ar    1  UNL1        0.1436
     23 CL        -62.5133  -34.7858  -20.3611 Cl      1  UNL1       -0.0613
     24 N         -62.9407  -37.4259  -20.1853 N.ar    1  UNL1       -0.2193
     25 C         -64.8062  -34.7687  -18.2307 C.3     1  UNL1        0.4208
     26 F         -63.7162  -33.9248  -18.1183 F       1  UNL1       -0.1658
     27 F         -65.7260  -34.2106  -19.1000 F       1  UNL1       -0.1658
     28 F         -65.3991  -34.8818  -16.9848 F       1  UNL1       -0.1658
     29 C         -62.3506  -49.0486  -25.9466 C.3     1  UNL1        0.1535
     30 C         -63.4206  -50.0922  -25.7135 C.2     1  UNL1        0.2443
     31 O         -64.4992  -50.0265  -26.3634 O.2     1  UNL1       -0.2730
     32 N         -63.1896  -51.2344  -24.8726 N.am    1  UNL1       -0.2825
     33 H         -63.7426  -52.1002  -25.0643 H       1  UNL1        0.1549
     34 C         -62.1598  -51.3036  -23.8774 C.ar    1  UNL1        0.0535
     35 C         -61.2865  -52.3973  -23.8555 C.ar    1  UNL1        0.0353
     36 C         -60.2940  -52.4651  -22.8746 C.ar    1  UNL1        0.1002
     37 N         -60.1931  -51.4849  -21.9376 N.ar    1  UNL1       -0.2422
     38 C         -61.0448  -50.4250  -21.9207 C.ar    1  UNL1        0.1002
     39 C         -62.0513  -50.3202  -22.8836 C.ar    1  UNL1        0.0353
     40 C         -62.3438  -48.6332  -27.4275 C.3     1  UNL1        0.0569
     41 C         -62.6057  -47.1630  -27.5740 C.ar    1  UNL1       -0.0017
     42 C         -63.7925  -46.4959  -27.2874 C.ar    1  UNL1        0.0681
     43 N         -63.6343  -45.1621  -27.4486 N.ar    1  UNL1       -0.3523
     44 C         -62.3557  -44.9820  -27.8239 C.ar    1  UNL1        0.0563
     45 C         -61.7128  -43.7726  -28.0852 C.ar    1  UNL1        0.0170
     46 C         -60.3521  -43.8149  -28.4422 C.ar    1  UNL1        0.0015
     47 C         -59.6718  -45.0503  -28.5262 C.ar    1  UNL1        0.0001
     48 C         -60.3462  -46.2543  -28.2555 C.ar    1  UNL1        0.0012
     49 C         -61.6951  -46.1804  -27.9079 C.ar    1  UNL1        0.0131
     50 H         -64.3566  -44.4239  -27.2939 H       1  UNL1        0.1660
@<TRIPOS>BOND
     1     1     2    2
     2     2     3   am
     3     3    29    1
     4    29    40    1
     5    40    41    1
     6    41    42   ar
     7    42    43   ar
     8    43    44   ar
     9    44    45   ar
    10    45    46   ar
    11    46    47   ar
    12    47    48   ar
    13    48    49   ar
    14    29    30    1
    15    30    31    2
    16    30    32   am
    17    32    34    1
    18    34    35   ar
    19    35    36   ar
    20    36    37   ar
    21    37    38   ar
    22    38    39   ar
    23     2     5    1
    24     5     6   ar
    25     6     7   ar
    26     7     8   ar
    27     8    12    1
    28    12    13    1
    29    13    14    1
    30    14    15    1
    31    15    18    1
    32    18    19   ar
    33    19    20   ar
    34    20    21   ar
    35    21    25    1
    36    25    26    1
    37    25    27    1
    38    25    28    1
    39    21    22   ar
    40    22    23    1
    41    22    24   ar
    42    15    16    1
    43    16    17    1
    44     8     9   ar
    45     9    10   ar
    46    10    11    1
    47    49    41   ar
    48    39    34   ar
    49    10     5   ar
    50    49    44   ar
    51    17    12    1
    52    24    18   ar
    53     3     4    1
    54    43    50    1
    55    32    33    1
@<TRIPOS>MOLECULE
*****
 50 55 0 0 0
SMALL
GASTEIGER

@<TRIPOS>ATOM
      1 O         -61.3574  -44.5108  -28.2356 O.2     1  UNL1       -0.2701
      2 C         -62.5276  -44.1083  -27.9897 C.2     1  UNL1        0.2483
      3 N         -63.6044  -44.4676  -28.8697 N.am    1  UNL1       -0.2945
      4 H         -64.5866  -44.3777  -28.5232 H       1  UNL1        0.1501
      5 C         -62.7756  -43.2982  -26.7758 C.ar    1  UNL1        0.0808
      6 C         -62.2739  -43.7321  -25.5381 C.ar    1  UNL1        0.0080
      7 C         -62.4974  -42.9860  -24.3786 C.ar    1  UNL1        0.0148
      8 C         -63.2188  -41.7807  -24.4314 C.ar    1  UNL1        0.0502
      9 C         -63.7089  -41.3397  -25.6728 C.ar    1  UNL1        0.0443
     10 C         -63.4870  -42.0847  -26.8352 C.ar    1  UNL1        0.1457
     11 F         -63.9249  -41.5881  -28.0194 F       1  UNL1       -0.2040
     12 N         -63.4556  -41.0092  -23.2325 N.pl3   1  UNL1       -0.3040
     13 C         -62.4295  -40.9370  -22.1825 C.3     1  UNL1        0.1123
     14 C         -62.4836  -39.5855  -21.4615 C.3     1  UNL1        0.1136
     15 N         -63.8517  -39.2440  -21.0364 N.pl3   1  UNL1       -0.2897
     16 C         -64.9875  -40.0305  -21.5387 C.3     1  UNL1        0.1136
     17 C         -64.7766  -40.4009  -23.0098 C.3     1  UNL1        0.1123
     18 C         -64.0731  -38.2350  -20.0251 C.ar    1  UNL1        0.1327
     19 C         -65.1747  -38.2977  -19.1572 C.ar    1  UNL1        0.0343
     20 C         -65.3541  -37.3044  -18.1947 C.ar    1  UNL1        0.0091
     21 C         -64.4402  -36.2424  -18.0859 C.ar    1  UNL1        0.0999
     22 C         -63.3437  -36.2175  -18.9729 C.ar    1  UNL1        0.1436
     23 CL        -62.1351  -34.9408  -18.9247 Cl      1  UNL1       -0.0613
     24 N         -63.1969  -37.2002  -19.9004 N.ar    1  UNL1       -0.2193
     25 C         -64.6272  -35.1613  -17.0440 C.3     1  UNL1        0.4208
     26 F         -63.4554  -34.9999  -16.3273 F       1  UNL1       -0.1658
     27 F         -64.9486  -33.9682  -17.6654 F       1  UNL1       -0.1658
     28 F         -65.6410  -35.4750  -16.1551 F       1  UNL1       -0.1658
     29 C         -63.3688  -45.1470  -30.1486 C.3     1  UNL1        0.1535
     30 C         -64.2302  -46.3860  -30.2539 C.2     1  UNL1        0.2443
     31 O         -65.1053  -46.4544  -31.1592 O.2     1  UNL1       -0.2730
     32 N         -63.9889  -47.5440  -29.4380 N.am    1  UNL1       -0.2825
     33 H         -64.2913  -48.4730  -29.8091 H       1  UNL1        0.1549
     34 C         -63.2446  -47.5219  -28.2127 C.ar    1  UNL1        0.0535
     35 C         -63.9126  -47.3344  -26.9970 C.ar    1  UNL1        0.0353
     36 C         -63.1797  -47.3001  -25.8080 C.ar    1  UNL1        0.1002
     37 N         -61.8263  -47.4277  -25.8372 N.ar    1  UNL1       -0.2422
     38 C         -61.1506  -47.5851  -27.0066 C.ar    1  UNL1        0.1002
     39 C         -61.8461  -47.6239  -28.2174 C.ar    1  UNL1        0.0353
     40 C         -63.6711  -44.2025  -31.3242 C.3     1  UNL1        0.0569
     41 C         -62.4520  -43.9961  -32.1744 C.ar    1  UNL1       -0.0017
     42 C         -62.3977  -43.3651  -33.4132 C.ar    1  UNL1        0.0681
     43 N         -61.1176  -43.2785  -33.8423 N.ar    1  UNL1       -0.3523
     44 C         -60.3642  -43.8396  -32.8803 C.ar    1  UNL1        0.0563
     45 C         -58.9756  -43.9642  -32.8577 C.ar    1  UNL1        0.0170
     46 C         -58.3878  -44.5681  -31.7306 C.ar    1  UNL1        0.0015
     47 C         -59.1913  -45.0258  -30.6625 C.ar    1  UNL1        0.0001
     48 C         -60.5897  -44.8853  -30.7126 C.ar    1  UNL1        0.0012
     49 C         -61.1431  -44.2862  -31.8442 C.ar    1  UNL1        0.0131
     50 H         -60.7850  -42.8460  -34.7327 H       1  UNL1        0.1660
@<TRIPOS>BOND
     1     1     2    2
     2     2     3   am
     3     3    29    1
     4    29    40    1
     5    40    41    1
     6    41    42   ar
     7    42    43   ar
     8    43    44   ar
     9    44    45   ar
    10    45    46   ar
    11    46    47   ar
    12    47    48   ar
    13    48    49   ar
    14    29    30    1
    15    30    31    2
    16    30    32   am
    17    32    34    1
    18    34    35   ar
    19    35    36   ar
    20    36    37   ar
    21    37    38   ar
    22    38    39   ar
    23     2     5    1
    24     5     6   ar
    25     6     7   ar
    26     7     8   ar
    27     8    12    1
    28    12    13    1
    29    13    14    1
    30    14    15    1
    31    15    18    1
    32    18    19   ar
    33    19    20   ar
    34    20    21   ar
    35    21    25    1
    36    25    26    1
    37    25    27    1
    38    25    28    1
    39    21    22   ar
    40    22    23    1
    41    22    24   ar
    42    15    16    1
    43    16    17    1
    44     8     9   ar
    45     9    10   ar
    46    10    11    1
    47    49    41   ar
    48    39    34   ar
    49    10     5   ar
    50    49    44   ar
    51    17    12    1
    52    24    18   ar
    53     3     4    1
    54    43    50    1
    55    32    33    1
