@<TRIPOS>MOLECULE
*****
 47 52 0 0 0
SMALL
GASTEIGER

@<TRIPOS>ATOM
      1 C          -6.4449  -14.5977   27.1820 C.ar    1  UNL1        0.0661
      2 C          -6.0526  -13.5404   28.0162 C.ar    1  UNL1        0.1146
      3 N          -6.9545  -12.9280   28.8236 N.ar    1  UNL1       -0.2279
      4 C          -8.2634  -13.2923   28.8538 C.ar    1  UNL1        0.1315
      5 C          -8.6987  -14.3566   28.0513 C.ar    1  UNL1        0.0313
      6 C          -7.7921  -15.0319   27.2119 C.ar    1  UNL1       -0.0047
      7 N          -9.1703  -12.6106   29.7404 N.pl3   1  UNL1       -0.2933
      8 C          -8.6799  -11.7687   30.8407 C.3     1  UNL1        0.0923
      9 C          -9.3652  -10.3934   30.8158 C.3     1  UNL1        0.0252
     10 C         -10.8508  -10.4547   30.3613 C.3     1  UNL1        0.0472
     11 C         -11.4331  -11.8786   30.4678 C.3     1  UNL1        0.0252
     12 C         -10.6145  -12.8515   29.6059 C.3     1  UNL1        0.0923
     13 C         -11.7181   -9.4410   31.1238 C.3     1  UNL1        0.2054
     14 O         -10.9004   -8.4385   31.7259 O.3     1  UNL1       -0.4755
     15 C         -10.5414   -7.2306   31.1106 C.ar    1  UNL1        0.1388
     16 C         -11.4962   -6.3222   30.6179 C.ar    1  UNL1        0.0369
     17 C         -11.0860   -5.1324   30.0131 C.ar    1  UNL1        0.0033
     18 C          -9.7264   -4.8362   29.8932 C.ar    1  UNL1        0.0066
     19 C          -8.7581   -5.7320   30.3797 C.ar    1  UNL1        0.0785
     20 C          -9.1795   -6.9281   30.9875 C.ar    1  UNL1        0.0433
     21 C          -7.3161   -5.4245   30.2560 C.2     1  UNL1        0.3381
     22 O          -6.4788   -6.3501   30.0766 O.2     1  UNL1       -0.2451
     23 O          -6.8694   -4.1080   30.3367 O.3     1  UNL1       -0.4771
     24 H          -5.8844   -3.8867   30.2533 H       1  UNL1        0.2954
     25 C          -5.5967  -15.0405   24.8471 C.2     1  UNL1        0.2839
     26 O          -6.4649  -14.2757   24.3464 O.2     1  UNL1       -0.2665
     27 N          -5.4928  -15.1743   26.2729 N.am    1  UNL1       -0.2769
     28 H          -4.6869  -15.7066   26.6711 H       1  UNL1        0.1553
     29 C          -3.5318  -17.3290   25.7233 C.3     1  UNL1        0.0345
     30 C          -3.7654  -16.7787   24.3486 C.ar    1  UNL1        0.0202
     31 C          -4.6687  -15.7792   23.9700 C.ar    1  UNL1        0.1946
     32 O          -4.5871  -15.5655   22.6687 O.2     1  UNL1       -0.4492
     33 C          -3.6785  -16.3757   22.1836 C.ar    1  UNL1        0.1452
     34 C          -3.2709  -16.4905   20.8592 C.ar    1  UNL1        0.0375
     35 C          -2.2743  -17.4338   20.5546 C.ar    1  UNL1        0.0031
     36 C          -1.7027  -18.2443   21.5725 C.ar    1  UNL1        0.0002
     37 C          -2.1458  -18.0952   22.9088 C.ar    1  UNL1        0.0028
     38 C          -3.1365  -17.1488   23.1751 C.ar    1  UNL1        0.0337
     39 C          -0.6507  -19.2377   21.2387 C.ar    1  UNL1        0.0000
     40 C          -0.7892  -20.5844   21.6254 C.ar    1  UNL1        0.0000
     41 C           0.2029  -21.5176   21.3096 C.ar    1  UNL1        0.0000
     42 C           1.3413  -21.1194   20.6054 C.ar    1  UNL1        0.0000
     43 C           1.4903  -19.7867   20.2155 C.ar    1  UNL1        0.0000
     44 C           0.5017  -18.8489   20.5294 C.ar    1  UNL1        0.0000
     45 C          -8.2741  -16.2078   26.3697 C.3     1  UNL1        0.0237
     46 C          -9.1395  -15.7185   25.2038 C.3     1  UNL1        0.0047
     47 C          -9.0257  -17.2446   27.2171 C.3     1  UNL1        0.0047
@<TRIPOS>BOND
     1    29    30    1
     2    30    31   ar
     3    31    25    1
     4    25    26    2
     5    25    27   am
     6    27     1    1
     7     1     2   ar
     8     2     3   ar
     9     3     4   ar
    10     4     7    1
    11     7     8    1
    12     8     9    1
    13     9    10    1
    14    10    13    1
    15    13    14    1
    16    14    15    1
    17    15    16   ar
    18    16    17   ar
    19    17    18   ar
    20    18    19   ar
    21    19    21    1
    22    21    22    2
    23    21    23    1
    24    19    20   ar
    25    10    11    1
    26    11    12    1
    27     4     5   ar
    28     5     6   ar
    29     6    45    1
    30    45    46    1
    31    45    47    1
    32    31    32   ar
    33    32    33   ar
    34    33    34   ar
    35    34    35   ar
    36    35    36   ar
    37    36    39    1
    38    39    40   ar
    39    40    41   ar
    40    41    42   ar
    41    42    43   ar
    42    43    44   ar
    43    36    37   ar
    44    37    38   ar
    45    38    30   ar
    46     6     1   ar
    47    38    33   ar
    48    12     7    1
    49    44    39   ar
    50    20    15   ar
    51    27    28    1
    52    23    24    1
@<TRIPOS>MOLECULE
*****
 47 52 0 0 0
SMALL
GASTEIGER

@<TRIPOS>ATOM
      1 C          -6.7953  -14.8549   27.0168 C.ar    1  UNL1        0.0661
      2 C          -6.4764  -13.8351   27.9257 C.ar    1  UNL1        0.1146
      3 N          -7.4422  -13.2647   28.6888 N.ar    1  UNL1       -0.2279
      4 C          -8.7466  -13.6362   28.6023 C.ar    1  UNL1        0.1315
      5 C          -9.1107  -14.6645   27.7213 C.ar    1  UNL1        0.0313
      6 C          -8.1373  -15.2963   26.9239 C.ar    1  UNL1       -0.0047
      7 N          -9.7238  -13.0001   29.4469 N.pl3   1  UNL1       -0.2933
      8 C         -10.2064  -13.6404   30.6786 C.3     1  UNL1        0.0923
      9 C         -10.1205  -12.6660   31.8639 C.3     1  UNL1        0.0252
     10 C         -10.4239  -11.1924   31.4717 C.3     1  UNL1        0.0472
     11 C         -11.1661  -11.0905   30.1238 C.3     1  UNL1        0.0252
     12 C         -10.3291  -11.7340   29.0082 C.3     1  UNL1        0.0923
     13 C         -11.1875  -10.4566   32.5838 C.3     1  UNL1        0.2054
     14 O         -12.2872  -11.2441   33.0386 O.3     1  UNL1       -0.4755
     15 C         -12.1722  -12.5335   33.5776 C.ar    1  UNL1        0.1388
     16 C         -11.2131  -12.8600   34.5540 C.ar    1  UNL1        0.0369
     17 C         -11.1401  -14.1600   35.0585 C.ar    1  UNL1        0.0033
     18 C         -12.0177  -15.1440   34.5980 C.ar    1  UNL1        0.0066
     19 C         -12.9824  -14.8360   33.6228 C.ar    1  UNL1        0.0785
     20 C         -13.0494  -13.5245   33.1197 C.ar    1  UNL1        0.0433
     21 C         -13.9153  -15.8736   33.1303 C.2     1  UNL1        0.3381
     22 O         -15.1580  -15.7502   33.3049 O.2     1  UNL1       -0.2451
     23 O         -13.4288  -16.9980   32.4683 O.3     1  UNL1       -0.4771
     24 H         -14.0588  -17.7142   32.1271 H       1  UNL1        0.2954
     25 C          -5.7389  -15.1414   24.7433 C.2     1  UNL1        0.2839
     26 O          -6.5426  -14.3199   24.2250 O.2     1  UNL1       -0.2665
     27 N          -5.7721  -15.3847   26.1580 N.am    1  UNL1       -0.2769
     28 H          -5.0167  -15.9651   26.5867 H       1  UNL1        0.1553
     29 C          -3.6957  -17.4305   25.6677 C.3     1  UNL1        0.0345
     30 C          -3.8514  -16.8341   24.3011 C.ar    1  UNL1        0.0202
     31 C          -4.7455  -15.8346   23.9014 C.ar    1  UNL1        0.1946
     32 O          -4.5857  -15.5728   22.6162 O.2     1  UNL1       -0.4492
     33 C          -3.6351  -16.3519   22.1616 C.ar    1  UNL1        0.1452
     34 C          -3.1431  -16.4129   20.8625 C.ar    1  UNL1        0.0375
     35 C          -2.1139  -17.3303   20.5888 C.ar    1  UNL1        0.0031
     36 C          -1.5942  -18.1688   21.6117 C.ar    1  UNL1        0.0002
     37 C          -2.1230  -18.0745   22.9216 C.ar    1  UNL1        0.0028
     38 C          -3.1439  -17.1525   23.1577 C.ar    1  UNL1        0.0337
     39 C          -0.5070  -19.1344   21.3106 C.ar    1  UNL1        0.0000
     40 C           0.6696  -18.7091   20.6648 C.ar    1  UNL1        0.0000
     41 C           1.6917  -19.6205   20.3827 C.ar    1  UNL1        0.0000
     42 C           1.5526  -20.9631   20.7413 C.ar    1  UNL1        0.0000
     43 C           0.3906  -21.3974   21.3828 C.ar    1  UNL1        0.0000
     44 C          -0.6352  -20.4905   21.6667 C.ar    1  UNL1        0.0000
     45 C          -8.5441  -16.4346   25.9948 C.3     1  UNL1        0.0237
     46 C          -9.3614  -15.9018   24.8133 C.3     1  UNL1        0.0047
     47 C          -9.3103  -17.5344   26.7438 C.3     1  UNL1        0.0047
@<TRIPOS>BOND
     1    29    30    1
     2    30    31   ar
     3    31    25    1
     4    25    26    2
     5    25    27   am
     6    27     1    1
     7     1     2   ar
     8     2     3   ar
     9     3     4   ar
    10     4     7    1
    11     7     8    1
    12     8     9    1
    13     9    10    1
    14    10    13    1
    15    13    14    1
    16    14    15    1
    17    15    16   ar
    18    16    17   ar
    19    17    18   ar
    20    18    19   ar
    21    19    21    1
    22    21    22    2
    23    21    23    1
    24    19    20   ar
    25    10    11    1
    26    11    12    1
    27     4     5   ar
    28     5     6   ar
    29     6    45    1
    30    45    46    1
    31    45    47    1
    32    31    32   ar
    33    32    33   ar
    34    33    34   ar
    35    34    35   ar
    36    35    36   ar
    37    36    39    1
    38    39    40   ar
    39    40    41   ar
    40    41    42   ar
    41    42    43   ar
    42    43    44   ar
    43    36    37   ar
    44    37    38   ar
    45    38    30   ar
    46     6     1   ar
    47    38    33   ar
    48    12     7    1
    49    44    39   ar
    50    20    15   ar
    51    27    28    1
    52    23    24    1
@<TRIPOS>MOLECULE
*****
 47 52 0 0 0
SMALL
GASTEIGER

@<TRIPOS>ATOM
      1 C          -8.0222  -15.3232   26.8221 C.ar    1  UNL1        0.0661
      2 C          -9.1858  -16.0666   27.0696 C.ar    1  UNL1        0.1146
      3 N          -9.6629  -16.9307   26.1390 N.ar    1  UNL1       -0.2279
      4 C          -9.0562  -17.1061   24.9357 C.ar    1  UNL1        0.1315
      5 C          -7.8796  -16.3987   24.6503 C.ar    1  UNL1        0.0313
      6 C          -7.3397  -15.5052   25.5951 C.ar    1  UNL1       -0.0047
      7 N          -9.6053  -18.0462   23.9936 N.pl3   1  UNL1       -0.2933
      8 C         -10.8117  -17.7354   23.2139 C.3     1  UNL1        0.0923
      9 C         -10.5761  -18.0112   21.7205 C.3     1  UNL1        0.0252
     10 C          -9.6632  -19.2423   21.4591 C.3     1  UNL1        0.0472
     11 C          -9.5638  -20.1645   22.6910 C.3     1  UNL1        0.0252
     12 C          -9.0071  -19.3856   23.8922 C.3     1  UNL1        0.0923
     13 C         -10.1105  -20.0242   20.2141 C.3     1  UNL1        0.2054
     14 O          -9.0075  -20.2319   19.3330 O.3     1  UNL1       -0.4755
     15 C          -7.6604  -20.1727   19.7182 C.ar    1  UNL1        0.1388
     16 C          -6.8614  -21.3237   19.8467 C.ar    1  UNL1        0.0369
     17 C          -5.5246  -21.2101   20.2337 C.ar    1  UNL1        0.0033
     18 C          -4.9720  -19.9545   20.4957 C.ar    1  UNL1        0.0066
     19 C          -5.7553  -18.7934   20.3725 C.ar    1  UNL1        0.0785
     20 C          -7.1008  -18.9164   19.9823 C.ar    1  UNL1        0.0433
     21 C          -5.1764  -17.4600   20.6486 C.2     1  UNL1        0.3381
     22 O          -4.0546  -17.3555   21.2149 O.2     1  UNL1       -0.2451
     23 O          -5.8661  -16.3062   20.2849 O.3     1  UNL1       -0.4771
     24 H          -5.4787  -15.3885   20.4693 H       1  UNL1        0.2954
     25 C          -8.4926  -13.5974   28.6018 C.2     1  UNL1        0.2839
     26 O          -9.7224  -13.8750   28.5988 O.2     1  UNL1       -0.2665
     27 N          -7.5833  -14.3515   27.7856 N.am    1  UNL1       -0.2769
     28 H          -6.5567  -14.1957   27.9000 H       1  UNL1        0.1553
     29 C          -5.8158  -11.8909   28.1643 C.3     1  UNL1        0.0345
     30 C          -6.8134  -11.7675   29.2764 C.ar    1  UNL1        0.0202
     31 C          -7.9817  -12.5147   29.4636 C.ar    1  UNL1        0.1946
     32 O          -8.6033  -12.1147   30.5588 O.2     1  UNL1       -0.4492
     33 C          -7.8992  -11.1459   31.0907 C.ar    1  UNL1        0.1452
     34 C          -8.1852  -10.4329   32.2497 C.ar    1  UNL1        0.0375
     35 C          -7.2885   -9.4243   32.6425 C.ar    1  UNL1        0.0031
     36 C          -6.1253   -9.1445   31.8756 C.ar    1  UNL1        0.0002
     37 C          -5.8708   -9.8945   30.7021 C.ar    1  UNL1        0.0028
     38 C          -6.7821  -10.8884   30.3421 C.ar    1  UNL1        0.0337
     39 C          -5.1852   -8.0764   32.3003 C.ar    1  UNL1        0.0000
     40 C          -4.7408   -7.1067   31.3812 C.ar    1  UNL1        0.0000
     41 C          -3.8557   -6.1021   31.7840 C.ar    1  UNL1        0.0000
     42 C          -3.4055   -6.0527   33.1052 C.ar    1  UNL1        0.0000
     43 C          -3.8394   -7.0082   34.0266 C.ar    1  UNL1        0.0000
     44 C          -4.7238   -8.0158   33.6292 C.ar    1  UNL1        0.0000
     45 C          -6.0422  -14.7680   25.2828 C.3     1  UNL1        0.0237
     46 C          -5.6828  -14.9115   23.8003 C.3     1  UNL1        0.0047
     47 C          -4.8885  -15.2421   26.1783 C.3     1  UNL1        0.0047
@<TRIPOS>BOND
     1    29    30    1
     2    30    31   ar
     3    31    25    1
     4    25    26    2
     5    25    27   am
     6    27     1    1
     7     1     2   ar
     8     2     3   ar
     9     3     4   ar
    10     4     7    1
    11     7     8    1
    12     8     9    1
    13     9    10    1
    14    10    13    1
    15    13    14    1
    16    14    15    1
    17    15    16   ar
    18    16    17   ar
    19    17    18   ar
    20    18    19   ar
    21    19    21    1
    22    21    22    2
    23    21    23    1
    24    19    20   ar
    25    10    11    1
    26    11    12    1
    27     4     5   ar
    28     5     6   ar
    29     6    45    1
    30    45    46    1
    31    45    47    1
    32    31    32   ar
    33    32    33   ar
    34    33    34   ar
    35    34    35   ar
    36    35    36   ar
    37    36    39    1
    38    39    40   ar
    39    40    41   ar
    40    41    42   ar
    41    42    43   ar
    42    43    44   ar
    43    36    37   ar
    44    37    38   ar
    45    38    30   ar
    46     6     1   ar
    47    38    33   ar
    48    12     7    1
    49    44    39   ar
    50    20    15   ar
    51    27    28    1
    52    23    24    1
@<TRIPOS>MOLECULE
*****
 47 52 0 0 0
SMALL
GASTEIGER

@<TRIPOS>ATOM
      1 C          -7.0659  -13.4444   27.8317 C.ar    1  UNL1        0.0661
      2 C          -8.3202  -14.0479   28.0050 C.ar    1  UNL1        0.1146
      3 N          -9.1248  -13.6829   29.0344 N.ar    1  UNL1       -0.2279
      4 C          -8.7565  -12.7407   29.9419 C.ar    1  UNL1        0.1315
      5 C          -7.5194  -12.0961   29.7990 C.ar    1  UNL1        0.0313
      6 C          -6.6612  -12.4315   28.7343 C.ar    1  UNL1       -0.0047
      7 N          -9.6593  -12.3888   31.0068 N.pl3   1  UNL1       -0.2933
      8 C          -9.1849  -11.7152   32.2238 C.3     1  UNL1        0.0923
      9 C         -10.0463  -10.4795   32.5285 C.3     1  UNL1        0.0252
     10 C         -11.5463  -10.6714   32.1675 C.3     1  UNL1        0.0472
     11 C         -11.9217  -12.1592   32.0139 C.3     1  UNL1        0.0252
     12 C         -11.0649  -12.8113   30.9184 C.3     1  UNL1        0.0923
     13 C         -12.4659   -9.9676   33.1777 C.3     1  UNL1        0.2054
     14 O         -12.9634   -8.7464   32.6323 O.3     1  UNL1       -0.4755
     15 C         -12.2615   -7.9352   31.7291 C.ar    1  UNL1        0.1388
     16 C         -12.3177   -6.5301   31.7764 C.ar    1  UNL1        0.0369
     17 C         -11.5993   -5.7678   30.8530 C.ar    1  UNL1        0.0033
     18 C         -10.8209   -6.3942   29.8771 C.ar    1  UNL1        0.0066
     19 C         -10.7528   -7.7971   29.8147 C.ar    1  UNL1        0.0785
     20 C         -11.4793   -8.5576   30.7483 C.ar    1  UNL1        0.0433
     21 C          -9.9302   -8.4674   28.7835 C.2     1  UNL1        0.3381
     22 O          -8.7206   -8.7420   29.0104 O.2     1  UNL1       -0.2451
     23 O         -10.4851   -8.8016   27.5507 O.3     1  UNL1       -0.4771
     24 H          -9.9306   -9.2607   26.8379 H       1  UNL1        0.2954
     25 C          -6.6709  -14.6154   25.6318 C.2     1  UNL1        0.2839
     26 O          -7.9097  -14.7290   25.4271 O.2     1  UNL1       -0.2665
     27 N          -6.1949  -13.9067   26.7863 N.am    1  UNL1       -0.2769
     28 H          -5.1724  -13.7096   26.8696 H       1  UNL1        0.1553
     29 C          -4.4884  -16.8873   26.2186 C.3     1  UNL1        0.0345
     30 C          -4.7533  -16.1792   24.9241 C.ar    1  UNL1        0.0202
     31 C          -5.7079  -15.1876   24.6719 C.ar    1  UNL1        0.1946
     32 O          -5.6404  -14.8061   23.4087 O.2     1  UNL1       -0.4492
     33 C          -4.6922  -15.5000   22.8284 C.ar    1  UNL1        0.1452
     34 C          -4.2821  -15.4241   21.5020 C.ar    1  UNL1        0.0375
     35 C          -3.2388  -16.2683   21.0842 C.ar    1  UNL1        0.0031
     36 C          -2.6238  -17.1712   21.9931 C.ar    1  UNL1        0.0002
     37 C          -3.0711  -17.2165   23.3356 C.ar    1  UNL1        0.0028
     38 C          -4.1087  -16.3640   23.7159 C.ar    1  UNL1        0.0337
     39 C          -1.5226  -18.0584   21.5402 C.ar    1  UNL1        0.0000
     40 C          -0.5570  -17.5923   20.6277 C.ar    1  UNL1        0.0000
     41 C           0.4789  -18.4300   20.2031 C.ar    1  UNL1        0.0000
     42 C           0.5637  -19.7386   20.6833 C.ar    1  UNL1        0.0000
     43 C          -0.3875  -20.2128   21.5892 C.ar    1  UNL1        0.0000
     44 C          -1.4262  -19.3798   22.0167 C.ar    1  UNL1        0.0000
     45 C          -5.3338  -11.6987   28.5741 C.3     1  UNL1        0.0237
     46 C          -4.8415  -11.1709   29.9256 C.3     1  UNL1        0.0047
     47 C          -5.4300  -10.5663   27.5416 C.3     1  UNL1        0.0047
@<TRIPOS>BOND
     1    29    30    1
     2    30    31   ar
     3    31    25    1
     4    25    26    2
     5    25    27   am
     6    27     1    1
     7     1     2   ar
     8     2     3   ar
     9     3     4   ar
    10     4     7    1
    11     7     8    1
    12     8     9    1
    13     9    10    1
    14    10    13    1
    15    13    14    1
    16    14    15    1
    17    15    16   ar
    18    16    17   ar
    19    17    18   ar
    20    18    19   ar
    21    19    21    1
    22    21    22    2
    23    21    23    1
    24    19    20   ar
    25    10    11    1
    26    11    12    1
    27     4     5   ar
    28     5     6   ar
    29     6    45    1
    30    45    46    1
    31    45    47    1
    32    31    32   ar
    33    32    33   ar
    34    33    34   ar
    35    34    35   ar
    36    35    36   ar
    37    36    39    1
    38    39    40   ar
    39    40    41   ar
    40    41    42   ar
    41    42    43   ar
    42    43    44   ar
    43    36    37   ar
    44    37    38   ar
    45    38    30   ar
    46     6     1   ar
    47    38    33   ar
    48    12     7    1
    49    44    39   ar
    50    20    15   ar
    51    27    28    1
    52    23    24    1
