@<TRIPOS>MOLECULE
*****
 49 54 0 0 0
SMALL
GASTEIGER

@<TRIPOS>ATOM
      1 O         -24.2790   51.7214  -11.5680 O.2     1  UNL1       -0.2861
      2 C         -24.0961   52.0430  -10.3625 C.2     1  UNL1        0.2080
      3 C         -22.7780   52.5630   -9.9369 C.2     1  UNL1        0.1445
      4 C         -21.9237   51.7472   -9.1892 C.2     1  UNL1        0.0149
      5 C         -20.6428   52.1920   -8.8521 C.2     1  UNL1        0.0516
      6 C         -20.2514   53.4820   -9.2292 C.2     1  UNL1        0.2813
      7 N         -21.0971   54.2980   -9.9280 N.am    1  UNL1       -0.1016
      8 C         -22.3443   53.8556  -10.2970 C.2     1  UNL1        0.4213
      9 O         -23.1205   54.6137  -10.9428 O.2     1  UNL1       -0.2139
     10 C         -19.7121   51.3151   -8.0597 C.3     1  UNL1        0.0590
     11 C         -18.2909   51.5388   -8.4974 C.ar    1  UNL1       -0.0131
     12 C         -17.9613   51.5310   -9.8631 C.ar    1  UNL1        0.0259
     13 C         -16.6335   51.7011  -10.2681 C.ar    1  UNL1        0.1421
     14 F         -16.3220   51.6966  -11.5877 F       1  UNL1       -0.2041
     15 C         -15.6264   51.8707   -9.3134 C.ar    1  UNL1        0.0592
     16 C         -15.9449   51.8670   -7.9522 C.ar    1  UNL1        0.1421
     17 F         -14.9660   52.0236   -7.0272 F       1  UNL1       -0.2041
     18 C         -17.2715   51.6973   -7.5435 C.ar    1  UNL1        0.0259
     19 C         -20.6357   55.6515  -10.2816 C.3     1  UNL1        0.3475
     20 C         -19.9592   56.3107   -9.1060 C.ar    1  UNL1        0.0823
     21 C         -19.5051   55.5291   -8.0296 C.ar    1  UNL1        0.0047
     22 C         -18.8485   56.1268   -6.9504 C.ar    1  UNL1        0.0000
     23 C         -18.6480   57.5088   -6.9309 C.ar    1  UNL1        0.0023
     24 C         -19.1162   58.2976   -7.9838 C.ar    1  UNL1        0.0295
     25 C         -19.7734   57.7063   -9.0678 C.ar    1  UNL1        0.1426
     26 F         -20.2138   58.4939  -10.0813 F       1  UNL1       -0.2043
     27 C         -25.2031   51.9819   -9.3864 C.2     1  UNL1        0.0837
     28 C         -26.4328   51.5129   -9.6513 C.2     1  UNL1        0.1910
     29 O         -26.7200   50.9818  -10.9097 O.2     1  UNL1       -0.5018
     30 H         -27.6395   50.6269  -11.1432 H       1  UNL1        0.2924
     31 C         -27.4900   51.5371   -8.6092 C.2     1  UNL1        0.2831
     32 O         -27.3642   52.2904   -7.6079 O.2     1  UNL1       -0.2666
     33 N         -28.6402   50.6844   -8.7002 N.am    1  UNL1       -0.2701
     34 C         -29.8289   51.1383   -9.4344 C.3     1  UNL1        0.1152
     35 C         -30.6287   49.9482   -9.9907 C.3     1  UNL1        0.1123
     36 N         -29.7187   48.8705  -10.4124 N.pl3   1  UNL1       -0.3041
     37 C         -28.6877   48.3710   -9.4860 C.3     1  UNL1        0.1123
     38 C         -28.5406   49.2881   -8.2694 C.3     1  UNL1        0.1152
     39 C         -29.8930   48.2317  -11.6910 C.ar    1  UNL1        0.0480
     40 C         -30.2206   48.9893  -12.8245 C.ar    1  UNL1        0.0160
     41 C         -30.3734   48.3716  -14.0691 C.ar    1  UNL1        0.0188
     42 C         -30.1841   46.9839  -14.2085 C.ar    1  UNL1        0.0642
     43 C         -29.8689   46.2279  -13.0664 C.ar    1  UNL1        0.0188
     44 C         -29.7274   46.8445  -11.8224 C.ar    1  UNL1        0.0160
     45 N         -30.2881   46.3502  -15.5011 N.ar    1  UNL1       -0.3036
     46 C         -30.1810   46.9506  -16.7060 C.ar    1  UNL1        0.0802
     47 C         -30.3083   46.0156  -17.7121 C.ar    1  UNL1        0.0205
     48 C         -30.4987   44.7963  -17.0959 C.ar    1  UNL1        0.0205
     49 C         -30.4833   45.0347  -15.7380 C.ar    1  UNL1        0.0802
@<TRIPOS>BOND
     1     1     2    2
     2     2    27    1
     3    27    28    2
     4    28    29    1
     5    28    31    1
     6    31    32    2
     7    31    33   am
     8    33    34    1
     9    34    35    1
    10    35    36    1
    11    36    39    1
    12    39    40   ar
    13    40    41   ar
    14    41    42   ar
    15    42    45    1
    16    45    46   ar
    17    46    47   ar
    18    47    48   ar
    19    48    49   ar
    20    42    43   ar
    21    43    44   ar
    22    36    37    1
    23    37    38    1
    24     2     3    1
    25     3     4    2
    26     4     5    1
    27     5    10    1
    28    10    11    1
    29    11    12   ar
    30    12    13   ar
    31    13    14    1
    32    13    15   ar
    33    15    16   ar
    34    16    17    1
    35    16    18   ar
    36     5     6    2
    37     6     7    1
    38     7    19    1
    39    19    20    1
    40    20    21   ar
    41    21    22   ar
    42    22    23   ar
    43    23    24   ar
    44    24    25   ar
    45    25    26    1
    46     7     8    1
    47     8     9    2
    48    38    33    1
    49     8     3    1
    50    44    39   ar
    51    18    11   ar
    52    25    20   ar
    53    49    45   ar
    54    29    30    1
@<TRIPOS>MOLECULE
*****
 49 54 0 0 0
SMALL
GASTEIGER

@<TRIPOS>ATOM
      1 O         -23.7258   50.5216  -11.3940 O.2     1  UNL1       -0.2861
      2 C         -23.6869   51.5846  -10.7168 C.2     1  UNL1        0.2080
      3 C         -22.4807   52.4399  -10.7679 C.2     1  UNL1        0.1445
      4 C         -22.5964   53.8106  -10.5190 C.2     1  UNL1        0.0149
      5 C         -21.4562   54.6172  -10.4799 C.2     1  UNL1        0.0516
      6 C         -20.2082   54.0411  -10.7445 C.2     1  UNL1        0.2813
      7 N         -20.0938   52.7080  -11.0256 N.am    1  UNL1       -0.1016
      8 C         -21.2046   51.8996  -11.0290 C.2     1  UNL1        0.4213
      9 O         -21.0924   50.6690  -11.2889 O.2     1  UNL1       -0.2139
     10 C         -21.5704   56.0906  -10.1990 C.3     1  UNL1        0.0590
     11 C         -20.5065   56.5167   -9.2252 C.ar    1  UNL1       -0.0131
     12 C         -19.9455   55.5840   -8.3369 C.ar    1  UNL1        0.0259
     13 C         -18.9836   55.9886   -7.4057 C.ar    1  UNL1        0.1421
     14 F         -18.4429   55.0831   -6.5536 F       1  UNL1       -0.2041
     15 C         -18.5828   57.3267   -7.3494 C.ar    1  UNL1        0.0592
     16 C         -19.1456   58.2630   -8.2216 C.ar    1  UNL1        0.1421
     17 F         -18.7618   59.5619   -8.1605 F       1  UNL1       -0.2041
     18 C         -20.1077   57.8621   -9.1542 C.ar    1  UNL1        0.0259
     19 C         -18.7561   52.1622  -11.3133 C.3     1  UNL1        0.3475
     20 C         -17.9485   52.0288  -10.0467 C.ar    1  UNL1        0.0823
     21 C         -18.5742   52.1790   -8.7971 C.ar    1  UNL1        0.0047
     22 C         -17.8411   52.0257   -7.6172 C.ar    1  UNL1        0.0000
     23 C         -16.4771   51.7312   -7.6735 C.ar    1  UNL1        0.0023
     24 C         -15.8404   51.6034   -8.9099 C.ar    1  UNL1        0.0295
     25 C         -16.5679   51.7546  -10.0949 C.ar    1  UNL1        0.1426
     26 F         -15.9273   51.6199  -11.2836 F       1  UNL1       -0.2043
     27 C         -24.8595   52.0276   -9.9351 C.2     1  UNL1        0.0837
     28 C         -25.9815   51.3105   -9.7645 C.2     1  UNL1        0.1910
     29 O         -26.0743   50.0241  -10.2980 O.2     1  UNL1       -0.5018
     30 H         -26.9094   49.4606  -10.1930 H       1  UNL1        0.2924
     31 C         -27.1230   51.8674   -8.9957 C.2     1  UNL1        0.2831
     32 O         -26.9147   52.7353   -8.1072 O.2     1  UNL1       -0.2666
     33 N         -28.4626   51.4044   -9.2179 N.am    1  UNL1       -0.2701
     34 C         -29.2911   52.0374  -10.2528 C.3     1  UNL1        0.1152
     35 C         -30.3444   51.0588  -10.7993 C.3     1  UNL1        0.1123
     36 N         -29.7967   49.6933  -10.8541 N.pl3   1  UNL1       -0.3041
     37 C         -29.1611   49.1053   -9.6621 C.3     1  UNL1        0.1123
     38 C         -28.9127   50.1632   -8.5841 C.3     1  UNL1        0.1152
     39 C         -29.9660   48.8899  -12.0369 C.ar    1  UNL1        0.0480
     40 C         -30.0682   49.4951  -13.2976 C.ar    1  UNL1        0.0160
     41 C         -30.2157   48.7145  -14.4479 C.ar    1  UNL1        0.0188
     42 C         -30.2465   47.3100  -14.3618 C.ar    1  UNL1        0.0642
     43 C         -30.1569   46.7097  -13.0942 C.ar    1  UNL1        0.0188
     44 C         -30.0206   47.4907  -11.9456 C.ar    1  UNL1        0.0160
     45 N         -30.3447   46.4989  -15.5515 N.ar    1  UNL1       -0.3036
     46 C         -30.2872   46.9299  -16.8300 C.ar    1  UNL1        0.0802
     47 C         -30.3895   45.8595  -17.6940 C.ar    1  UNL1        0.0205
     48 C         -30.5123   44.7306  -16.9108 C.ar    1  UNL1        0.0205
     49 C         -30.4833   45.1560  -15.5997 C.ar    1  UNL1        0.0802
@<TRIPOS>BOND
     1     1     2    2
     2     2    27    1
     3    27    28    2
     4    28    29    1
     5    28    31    1
     6    31    32    2
     7    31    33   am
     8    33    34    1
     9    34    35    1
    10    35    36    1
    11    36    39    1
    12    39    40   ar
    13    40    41   ar
    14    41    42   ar
    15    42    45    1
    16    45    46   ar
    17    46    47   ar
    18    47    48   ar
    19    48    49   ar
    20    42    43   ar
    21    43    44   ar
    22    36    37    1
    23    37    38    1
    24     2     3    1
    25     3     4    2
    26     4     5    1
    27     5    10    1
    28    10    11    1
    29    11    12   ar
    30    12    13   ar
    31    13    14    1
    32    13    15   ar
    33    15    16   ar
    34    16    17    1
    35    16    18   ar
    36     5     6    2
    37     6     7    1
    38     7    19    1
    39    19    20    1
    40    20    21   ar
    41    21    22   ar
    42    22    23   ar
    43    23    24   ar
    44    24    25   ar
    45    25    26    1
    46     7     8    1
    47     8     9    2
    48    38    33    1
    49     8     3    1
    50    44    39   ar
    51    18    11   ar
    52    25    20   ar
    53    49    45   ar
    54    29    30    1
@<TRIPOS>MOLECULE
*****
 49 54 0 0 0
SMALL
GASTEIGER

@<TRIPOS>ATOM
      1 O         -26.4198   49.7868   -2.5330 O.2     1  UNL1       -0.2861
      2 C         -27.0793   48.9911   -3.2554 C.2     1  UNL1        0.2080
      3 C         -27.2860   49.3042   -4.6867 C.2     1  UNL1        0.1445
      4 C         -26.3422   48.8827   -5.6279 C.2     1  UNL1        0.0149
      5 C         -26.5642   49.0958   -6.9908 C.2     1  UNL1        0.0516
      6 C         -27.7170   49.7814   -7.3913 C.2     1  UNL1        0.2813
      7 N         -28.6249   50.2288   -6.4722 N.am    1  UNL1       -0.1016
      8 C         -28.4342   49.9907   -5.1326 C.2     1  UNL1        0.4213
      9 O         -29.2765   50.4061   -4.2886 O.2     1  UNL1       -0.2139
     10 C         -25.5604   48.6332   -8.0112 C.3     1  UNL1        0.0590
     11 C         -25.1344   49.7853   -8.8788 C.ar    1  UNL1       -0.0131
     12 C         -25.7481   49.9979  -10.1245 C.ar    1  UNL1        0.0259
     13 C         -25.3256   51.0465  -10.9479 C.ar    1  UNL1        0.1421
     14 F         -25.9243   51.2492  -12.1474 F       1  UNL1       -0.2041
     15 C         -24.2834   51.8829  -10.5374 C.ar    1  UNL1        0.0592
     16 C         -23.6595   51.6700   -9.3046 C.ar    1  UNL1        0.1421
     17 F         -22.6434   52.4770   -8.9113 F       1  UNL1       -0.2041
     18 C         -24.0793   50.6224   -8.4786 C.ar    1  UNL1        0.0259
     19 C         -29.8102   50.9596   -6.9527 C.3     1  UNL1        0.3475
     20 C         -30.1931   50.5063   -8.3391 C.ar    1  UNL1        0.0823
     21 C         -31.1970   49.5371   -8.5077 C.ar    1  UNL1        0.0047
     22 C         -31.5812   49.1338   -9.7894 C.ar    1  UNL1        0.0000
     23 C         -30.9612   49.6859  -10.9125 C.ar    1  UNL1        0.0023
     24 C         -29.9461   50.6320  -10.7559 C.ar    1  UNL1        0.0295
     25 C         -29.5570   51.0412   -9.4762 C.ar    1  UNL1        0.1426
     26 F         -28.5720   51.9662   -9.3507 F       1  UNL1       -0.2043
     27 C         -27.5808   47.7127   -2.7111 C.2     1  UNL1        0.0837
     28 C         -28.7941   47.5368   -2.1640 C.2     1  UNL1        0.1910
     29 O         -29.7051   48.5938   -2.1340 O.2     1  UNL1       -0.5018
     30 H         -30.6251   48.4953   -1.7220 H       1  UNL1        0.2924
     31 C         -29.1849   46.2185   -1.6039 C.2     1  UNL1        0.2831
     32 O         -29.2242   46.0560   -0.3557 O.2     1  UNL1       -0.2666
     33 N         -29.4815   45.1074   -2.4615 N.am    1  UNL1       -0.2701
     34 C         -30.8490   44.9180   -2.9639 C.3     1  UNL1        0.1152
     35 C         -30.8506   44.1682   -4.3068 C.3     1  UNL1        0.1123
     36 N         -29.6855   44.5619   -5.1159 N.pl3   1  UNL1       -0.3041
     37 C         -28.3327   44.5117   -4.5343 C.3     1  UNL1        0.1123
     38 C         -28.3855   44.3110   -3.0178 C.3     1  UNL1        0.1152
     39 C         -29.8479   44.9025   -6.5054 C.ar    1  UNL1        0.0480
     40 C         -29.1893   46.0165   -7.0452 C.ar    1  UNL1        0.0160
     41 C         -29.3337   46.3376   -8.3980 C.ar    1  UNL1        0.0188
     42 C         -30.1270   45.5395   -9.2434 C.ar    1  UNL1        0.0642
     43 C         -30.7952   44.4319   -8.6938 C.ar    1  UNL1        0.0188
     44 C         -30.6590   44.1189   -7.3405 C.ar    1  UNL1        0.0160
     45 N         -30.2357   45.8363  -10.6516 N.ar    1  UNL1       -0.3036
     46 C         -29.2174   46.0164  -11.5201 C.ar    1  UNL1        0.0802
     47 C         -29.7128   46.2546  -12.7853 C.ar    1  UNL1        0.0205
     48 C         -31.0879   46.2162  -12.6843 C.ar    1  UNL1        0.0205
     49 C         -31.3786   45.9592  -11.3613 C.ar    1  UNL1        0.0802
@<TRIPOS>BOND
     1     1     2    2
     2     2    27    1
     3    27    28    2
     4    28    29    1
     5    28    31    1
     6    31    32    2
     7    31    33   am
     8    33    34    1
     9    34    35    1
    10    35    36    1
    11    36    39    1
    12    39    40   ar
    13    40    41   ar
    14    41    42   ar
    15    42    45    1
    16    45    46   ar
    17    46    47   ar
    18    47    48   ar
    19    48    49   ar
    20    42    43   ar
    21    43    44   ar
    22    36    37    1
    23    37    38    1
    24     2     3    1
    25     3     4    2
    26     4     5    1
    27     5    10    1
    28    10    11    1
    29    11    12   ar
    30    12    13   ar
    31    13    14    1
    32    13    15   ar
    33    15    16   ar
    34    16    17    1
    35    16    18   ar
    36     5     6    2
    37     6     7    1
    38     7    19    1
    39    19    20    1
    40    20    21   ar
    41    21    22   ar
    42    22    23   ar
    43    23    24   ar
    44    24    25   ar
    45    25    26    1
    46     7     8    1
    47     8     9    2
    48    38    33    1
    49     8     3    1
    50    44    39   ar
    51    18    11   ar
    52    25    20   ar
    53    49    45   ar
    54    29    30    1
@<TRIPOS>MOLECULE
*****
 49 54 0 0 0
SMALL
GASTEIGER

@<TRIPOS>ATOM
      1 O         -28.5900   52.3598  -12.3778 O.2     1  UNL1       -0.2861
      2 C         -28.4158   51.2787  -11.7527 C.2     1  UNL1        0.2080
      3 C         -27.7188   51.2933  -10.4476 C.2     1  UNL1        0.1445
      4 C         -26.3568   50.9840  -10.3900 C.2     1  UNL1        0.0149
      5 C         -25.6652   51.0756   -9.1794 C.2     1  UNL1        0.0516
      6 C         -26.3678   51.4301   -8.0218 C.2     1  UNL1        0.2813
      7 N         -27.7080   51.6971   -8.0659 N.am    1  UNL1       -0.1016
      8 C         -28.3888   51.6467   -9.2581 C.2     1  UNL1        0.4213
      9 O         -29.6264   51.8948   -9.2925 O.2     1  UNL1       -0.2139
     10 C         -24.1964   50.7580   -9.1112 C.3     1  UNL1        0.0590
     11 C         -23.4105   51.7670   -9.9022 C.ar    1  UNL1       -0.0131
     12 C         -22.2678   51.3712  -10.6173 C.ar    1  UNL1        0.0259
     13 C         -21.5154   52.3165  -11.3218 C.ar    1  UNL1        0.1421
     14 F         -20.4159   51.9280  -12.0135 F       1  UNL1       -0.2041
     15 C         -21.8932   53.6624  -11.3095 C.ar    1  UNL1        0.0592
     16 C         -23.0219   54.0658  -10.5900 C.ar    1  UNL1        0.1421
     17 F         -23.3825   55.3727  -10.5724 F       1  UNL1       -0.2041
     18 C         -23.7767   53.1233   -9.8844 C.ar    1  UNL1        0.0259
     19 C         -28.3969   52.0477   -6.8119 C.3     1  UNL1        0.3475
     20 C         -29.1104   50.8487   -6.2397 C.ar    1  UNL1        0.0823
     21 C         -30.2312   50.3180   -6.9015 C.ar    1  UNL1        0.0047
     22 C         -30.8799   49.1878   -6.3966 C.ar    1  UNL1        0.0000
     23 C         -30.4230   48.5838   -5.2231 C.ar    1  UNL1        0.0023
     24 C         -29.3250   49.1171   -4.5447 C.ar    1  UNL1        0.0295
     25 C         -28.6701   50.2473   -5.0447 C.ar    1  UNL1        0.1426
     26 F         -27.6020   50.7429   -4.3701 F       1  UNL1       -0.2043
     27 C         -28.9674   50.0089  -12.2679 C.2     1  UNL1        0.0837
     28 C         -30.1527   49.4884  -11.9119 C.2     1  UNL1        0.1910
     29 O         -30.9861   50.1869  -11.0369 O.2     1  UNL1       -0.5018
     30 H         -31.8826   49.8182  -10.7435 H       1  UNL1        0.2924
     31 C         -30.5957   48.1799  -12.4558 C.2     1  UNL1        0.2831
     32 O         -31.0744   48.1157  -13.6188 O.2     1  UNL1       -0.2666
     33 N         -30.5266   46.9861  -11.6632 N.am    1  UNL1       -0.2701
     34 C         -29.2961   46.1835  -11.6586 C.3     1  UNL1        0.1152
     35 C         -29.1443   45.4036  -10.3418 C.3     1  UNL1        0.1123
     36 N         -29.6551   46.1983   -9.2127 N.pl3   1  UNL1       -0.3041
     37 C         -31.0048   46.7857   -9.2752 C.3     1  UNL1        0.1123
     38 C         -31.5836   46.7026  -10.6898 C.3     1  UNL1        0.1152
     39 C         -28.8822   46.3237   -8.0044 C.ar    1  UNL1        0.0480
     40 C         -29.1830   45.5359   -6.8841 C.ar    1  UNL1        0.0160
     41 C         -28.4223   45.6455   -5.7165 C.ar    1  UNL1        0.0188
     42 C         -27.3328   46.5342   -5.6517 C.ar    1  UNL1        0.0642
     43 C         -27.0444   47.3308   -6.7732 C.ar    1  UNL1        0.0188
     44 C         -27.8116   47.2281   -7.9345 C.ar    1  UNL1        0.0160
     45 N         -26.5120   46.6117   -4.4671 N.ar    1  UNL1       -0.3036
     46 C         -25.7397   45.6300   -3.9539 C.ar    1  UNL1        0.0802
     47 C         -25.0811   46.0860   -2.8310 C.ar    1  UNL1        0.0205
     48 C         -25.4658   47.3987   -2.6536 C.ar    1  UNL1        0.0205
     49 C         -26.3465   47.6921   -3.6732 C.ar    1  UNL1        0.0802
@<TRIPOS>BOND
     1     1     2    2
     2     2    27    1
     3    27    28    2
     4    28    29    1
     5    28    31    1
     6    31    32    2
     7    31    33   am
     8    33    34    1
     9    34    35    1
    10    35    36    1
    11    36    39    1
    12    39    40   ar
    13    40    41   ar
    14    41    42   ar
    15    42    45    1
    16    45    46   ar
    17    46    47   ar
    18    47    48   ar
    19    48    49   ar
    20    42    43   ar
    21    43    44   ar
    22    36    37    1
    23    37    38    1
    24     2     3    1
    25     3     4    2
    26     4     5    1
    27     5    10    1
    28    10    11    1
    29    11    12   ar
    30    12    13   ar
    31    13    14    1
    32    13    15   ar
    33    15    16   ar
    34    16    17    1
    35    16    18   ar
    36     5     6    2
    37     6     7    1
    38     7    19    1
    39    19    20    1
    40    20    21   ar
    41    21    22   ar
    42    22    23   ar
    43    23    24   ar
    44    24    25   ar
    45    25    26    1
    46     7     8    1
    47     8     9    2
    48    38    33    1
    49     8     3    1
    50    44    39   ar
    51    18    11   ar
    52    25    20   ar
    53    49    45   ar
    54    29    30    1
@<TRIPOS>MOLECULE
*****
 49 54 0 0 0
SMALL
GASTEIGER

@<TRIPOS>ATOM
      1 O         -29.1652   52.6542  -11.1099 O.2     1  UNL1       -0.2861
      2 C         -28.5684   51.5505  -10.9848 C.2     1  UNL1        0.2080
      3 C         -27.4131   51.4445  -10.0665 C.2     1  UNL1        0.1445
      4 C         -27.6090   51.6005   -8.6912 C.2     1  UNL1        0.0149
      5 C         -26.5448   51.4196   -7.8041 C.2     1  UNL1        0.0516
      6 C         -25.2747   51.1326   -8.3177 C.2     1  UNL1        0.2813
      7 N         -25.0699   51.0162   -9.6645 N.am    1  UNL1       -0.1016
      8 C         -26.1177   51.1547  -10.5423 C.2     1  UNL1        0.4213
      9 O         -25.9223   51.0456  -11.7849 O.2     1  UNL1       -0.2139
     10 C         -26.7499   51.5718   -6.3216 C.3     1  UNL1        0.0590
     11 C         -28.1634   51.2129   -5.9543 C.ar    1  UNL1       -0.0131
     12 C         -28.5640   49.8670   -5.9136 C.ar    1  UNL1        0.0259
     13 C         -29.8882   49.5353   -5.6091 C.ar    1  UNL1        0.1421
     14 F         -30.2681   48.2344   -5.5674 F       1  UNL1       -0.2041
     15 C         -30.8215   50.5440   -5.3526 C.ar    1  UNL1        0.0592
     16 C         -30.4333   51.8860   -5.4035 C.ar    1  UNL1        0.1421
     17 F         -31.3414   52.8634   -5.1624 F       1  UNL1       -0.2041
     18 C         -29.1100   52.2215   -5.7076 C.ar    1  UNL1        0.0259
     19 C         -23.7076   50.7304  -10.1466 C.3     1  UNL1        0.3475
     20 C         -22.9584   52.0095  -10.4236 C.ar    1  UNL1        0.0823
     21 C         -23.6080   53.2477  -10.2802 C.ar    1  UNL1        0.0047
     22 C         -22.9134   54.4397  -10.5035 C.ar    1  UNL1        0.0000
     23 C         -21.5692   54.4068  -10.8809 C.ar    1  UNL1        0.0023
     24 C         -20.9206   53.1815  -11.0494 C.ar    1  UNL1        0.0295
     25 C         -21.6092   51.9845  -10.8267 C.ar    1  UNL1        0.1426
     26 F         -20.9550   50.8071  -10.9916 F       1  UNL1       -0.2043
     27 C         -29.0557   50.3429  -11.6822 C.2     1  UNL1        0.0837
     28 C         -30.3237   49.9024  -11.6557 C.2     1  UNL1        0.1910
     29 O         -31.3016   50.6338  -10.9798 O.2     1  UNL1       -0.5018
     30 H         -32.2651   50.3246  -10.9351 H       1  UNL1        0.2924
     31 C         -30.7014   48.6490  -12.3560 C.2     1  UNL1        0.2831
     32 O         -31.1912   48.7032  -13.5150 O.2     1  UNL1       -0.2666
     33 N         -30.5565   47.3716  -11.7193 N.am    1  UNL1       -0.2701
     34 C         -29.2839   46.6449  -11.8228 C.3     1  UNL1        0.1152
     35 C         -29.0720   45.7169  -10.6147 C.3     1  UNL1        0.1123
     36 N         -29.6107   46.3351   -9.3920 N.pl3   1  UNL1       -0.3041
     37 C         -30.9913   46.8492   -9.3721 C.3     1  UNL1        0.1123
     38 C         -31.5833   46.9104  -10.7824 C.3     1  UNL1        0.1152
     39 C         -28.8300   46.3524   -8.1823 C.ar    1  UNL1        0.0480
     40 C         -27.6622   47.1244   -8.1018 C.ar    1  UNL1        0.0160
     41 C         -26.9132   47.1544   -6.9220 C.ar    1  UNL1        0.0188
     42 C         -27.3271   46.4253   -5.7915 C.ar    1  UNL1        0.0642
     43 C         -28.4911   45.6429   -5.8824 C.ar    1  UNL1        0.0188
     44 C         -29.2320   45.6053   -7.0646 C.ar    1  UNL1        0.0160
     45 N         -26.5862   46.4958   -4.5549 N.ar    1  UNL1       -0.3036
     46 C         -25.9413   45.4808   -3.9406 C.ar    1  UNL1        0.0802
     47 C         -25.3237   45.9384   -2.7953 C.ar    1  UNL1        0.0205
     48 C         -25.6016   47.2868   -2.7090 C.ar    1  UNL1        0.0205
     49 C         -26.3804   47.5991   -3.8030 C.ar    1  UNL1        0.0802
@<TRIPOS>BOND
     1     1     2    2
     2     2    27    1
     3    27    28    2
     4    28    29    1
     5    28    31    1
     6    31    32    2
     7    31    33   am
     8    33    34    1
     9    34    35    1
    10    35    36    1
    11    36    39    1
    12    39    40   ar
    13    40    41   ar
    14    41    42   ar
    15    42    45    1
    16    45    46   ar
    17    46    47   ar
    18    47    48   ar
    19    48    49   ar
    20    42    43   ar
    21    43    44   ar
    22    36    37    1
    23    37    38    1
    24     2     3    1
    25     3     4    2
    26     4     5    1
    27     5    10    1
    28    10    11    1
    29    11    12   ar
    30    12    13   ar
    31    13    14    1
    32    13    15   ar
    33    15    16   ar
    34    16    17    1
    35    16    18   ar
    36     5     6    2
    37     6     7    1
    38     7    19    1
    39    19    20    1
    40    20    21   ar
    41    21    22   ar
    42    22    23   ar
    43    23    24   ar
    44    24    25   ar
    45    25    26    1
    46     7     8    1
    47     8     9    2
    48    38    33    1
    49     8     3    1
    50    44    39   ar
    51    18    11   ar
    52    25    20   ar
    53    49    45   ar
    54    29    30    1
@<TRIPOS>MOLECULE
*****
 49 54 0 0 0
SMALL
GASTEIGER

@<TRIPOS>ATOM
      1 O         -23.5289   50.1845  -10.6295 O.2     1  UNL1       -0.2861
      2 C         -23.6498   51.4225  -10.4228 C.2     1  UNL1        0.2080
      3 C         -22.4793   52.3103  -10.5982 C.2     1  UNL1        0.1445
      4 C         -22.6200   53.6857  -10.3911 C.2     1  UNL1        0.0149
      5 C         -21.5069   54.5265  -10.4696 C.2     1  UNL1        0.0516
      6 C         -20.2647   53.9776  -10.8089 C.2     1  UNL1        0.2813
      7 N         -20.1289   52.6386  -11.0494 N.am    1  UNL1       -0.1016
      8 C         -21.2100   51.7982  -10.9374 C.2     1  UNL1        0.4213
      9 O         -21.0781   50.5624  -11.1603 O.2     1  UNL1       -0.2139
     10 C         -21.6470   56.0056  -10.2345 C.3     1  UNL1        0.0590
     11 C         -20.6200   56.4720   -9.2398 C.ar    1  UNL1       -0.0131
     12 C         -20.2194   57.8183   -9.2147 C.ar    1  UNL1        0.0259
     13 C         -19.2366   58.2439   -8.3151 C.ar    1  UNL1        0.1421
     14 F         -18.8569   59.5453   -8.2927 F       1  UNL1       -0.2041
     15 C         -18.6420   57.3278   -7.4425 C.ar    1  UNL1        0.0592
     16 C         -19.0265   55.9840   -7.4702 C.ar    1  UNL1        0.1421
     17 F         -18.4433   55.0951   -6.6288 F       1  UNL1       -0.2041
     18 C         -20.0090   55.5548   -8.3683 C.ar    1  UNL1        0.0259
     19 C         -18.8001   52.1217  -11.4197 C.3     1  UNL1        0.3475
     20 C         -17.9144   52.0024  -10.2050 C.ar    1  UNL1        0.0823
     21 C         -18.4664   52.1349   -8.9191 C.ar    1  UNL1        0.0047
     22 C         -17.6598   51.9943   -7.7865 C.ar    1  UNL1        0.0000
     23 C         -16.2956   51.7303   -7.9266 C.ar    1  UNL1        0.0023
     24 C         -15.7324   51.6204   -9.1998 C.ar    1  UNL1        0.0295
     25 C         -16.5336   51.7590  -10.3379 C.ar    1  UNL1        0.1426
     26 F         -15.9635   51.6422  -11.5638 F       1  UNL1       -0.2043
     27 C         -24.9628   52.0089  -10.0846 C.2     1  UNL1        0.0837
     28 C         -26.0421   51.3047   -9.7084 C.2     1  UNL1        0.1910
     29 O         -25.9528   49.9201   -9.5570 O.2     1  UNL1       -0.5018
     30 H         -26.7503   49.3597   -9.2816 H       1  UNL1        0.2924
     31 C         -27.3307   51.9888   -9.4333 C.2     1  UNL1        0.2831
     32 O         -27.7935   52.8102  -10.2682 O.2     1  UNL1       -0.2666
     33 N         -28.0438   51.7619   -8.2093 N.am    1  UNL1       -0.2701
     34 C         -29.0032   50.6529   -8.1186 C.3     1  UNL1        0.1152
     35 C         -29.1429   50.1539   -6.6705 C.3     1  UNL1        0.1123
     36 N         -27.8475   50.2276   -5.9750 N.pl3   1  UNL1       -0.3041
     37 C         -27.0766   51.4831   -5.9827 C.3     1  UNL1        0.1123
     38 C         -27.6445   52.4793   -6.9966 C.3     1  UNL1        0.1152
     39 C         -27.3734   49.1089   -5.2023 C.ar    1  UNL1        0.0480
     40 C         -26.8998   49.2978   -3.8962 C.ar    1  UNL1        0.0160
     41 C         -26.4551   48.2095   -3.1399 C.ar    1  UNL1        0.0188
     42 C         -26.4915   46.9060   -3.6695 C.ar    1  UNL1        0.0642
     43 C         -26.9549   46.7246   -4.9839 C.ar    1  UNL1        0.0188
     44 C         -27.3883   47.8135   -5.7417 C.ar    1  UNL1        0.0160
     45 N         -26.0838   45.7734   -2.8733 N.ar    1  UNL1       -0.3036
     46 C         -24.8944   45.1359   -2.9249 C.ar    1  UNL1        0.0802
     47 C         -24.8634   44.1187   -1.9937 C.ar    1  UNL1        0.0205
     48 C         -26.0818   44.1382   -1.3473 C.ar    1  UNL1        0.0205
     49 C         -26.8102   45.1642   -1.9109 C.ar    1  UNL1        0.0802
@<TRIPOS>BOND
     1     1     2    2
     2     2    27    1
     3    27    28    2
     4    28    29    1
     5    28    31    1
     6    31    32    2
     7    31    33   am
     8    33    34    1
     9    34    35    1
    10    35    36    1
    11    36    39    1
    12    39    40   ar
    13    40    41   ar
    14    41    42   ar
    15    42    45    1
    16    45    46   ar
    17    46    47   ar
    18    47    48   ar
    19    48    49   ar
    20    42    43   ar
    21    43    44   ar
    22    36    37    1
    23    37    38    1
    24     2     3    1
    25     3     4    2
    26     4     5    1
    27     5    10    1
    28    10    11    1
    29    11    12   ar
    30    12    13   ar
    31    13    14    1
    32    13    15   ar
    33    15    16   ar
    34    16    17    1
    35    16    18   ar
    36     5     6    2
    37     6     7    1
    38     7    19    1
    39    19    20    1
    40    20    21   ar
    41    21    22   ar
    42    22    23   ar
    43    23    24   ar
    44    24    25   ar
    45    25    26    1
    46     7     8    1
    47     8     9    2
    48    38    33    1
    49     8     3    1
    50    44    39   ar
    51    18    11   ar
    52    25    20   ar
    53    49    45   ar
    54    29    30    1
@<TRIPOS>MOLECULE
*****
 49 54 0 0 0
SMALL
GASTEIGER

@<TRIPOS>ATOM
      1 O         -29.8141   51.4244  -11.7614 O.2     1  UNL1       -0.2861
      2 C         -29.5556   50.4317  -11.0282 C.2     1  UNL1        0.2080
      3 C         -29.1857   50.6461   -9.6117 C.2     1  UNL1        0.1445
      4 C         -27.8361   50.7277   -9.2564 C.2     1  UNL1        0.0149
      5 C         -27.4718   51.0141   -7.9383 C.2     1  UNL1        0.0516
      6 C         -28.4756   51.1652   -6.9745 C.2     1  UNL1        0.2813
      7 N         -29.7961   51.0490   -7.3094 N.am    1  UNL1       -0.1016
      8 C         -30.1654   50.8053   -8.6101 C.2     1  UNL1        0.4213
      9 O         -31.3866   50.6996   -8.9132 O.2     1  UNL1       -0.2139
     10 C         -26.0221   51.1175   -7.5502 C.3     1  UNL1        0.0590
     11 C         -25.1695   51.3025   -8.7750 C.ar    1  UNL1       -0.0131
     12 C         -25.7269   51.1482  -10.0554 C.ar    1  UNL1        0.0259
     13 C         -24.9251   51.2828  -11.1934 C.ar    1  UNL1        0.1421
     14 F         -25.4695   51.1367  -12.4265 F       1  UNL1       -0.2041
     15 C         -23.5620   51.5631  -11.0605 C.ar    1  UNL1        0.0592
     16 C         -22.9976   51.7057   -9.7895 C.ar    1  UNL1        0.1421
     17 F         -21.6738   51.9696   -9.6620 F       1  UNL1       -0.2041
     18 C         -23.7962   51.5718   -8.6492 C.ar    1  UNL1        0.0259
     19 C         -30.8067   51.2008   -6.2485 C.3     1  UNL1        0.3475
     20 C         -30.7663   50.0298   -5.2991 C.ar    1  UNL1        0.0823
     21 C         -30.3238   50.2134   -3.9776 C.ar    1  UNL1        0.0047
     22 C         -30.3128   49.1414   -3.0811 C.ar    1  UNL1        0.0000
     23 C         -30.7333   47.8763   -3.4971 C.ar    1  UNL1        0.0023
     24 C         -31.1523   47.6774   -4.8143 C.ar    1  UNL1        0.0295
     25 C         -31.1670   48.7459   -5.7169 C.ar    1  UNL1        0.1426
     26 F         -31.5839   48.5280   -6.9898 F       1  UNL1       -0.2043
     27 C         -29.6937   49.0539  -11.5428 C.2     1  UNL1        0.0837
     28 C         -30.6546   48.6442  -12.3862 C.2     1  UNL1        0.1910
     29 O         -31.5809   49.5609  -12.8857 O.2     1  UNL1       -0.5018
     30 H         -32.3218   49.2822  -13.5175 H       1  UNL1        0.2924
     31 C         -30.7313   47.2230  -12.8089 C.2     1  UNL1        0.2831
     32 O         -31.0769   46.9383  -13.9860 O.2     1  UNL1       -0.2666
     33 N         -30.4572   46.1594  -11.8860 N.am    1  UNL1       -0.2701
     34 C         -29.0793   45.6800  -11.7135 C.3     1  UNL1        0.1152
     35 C         -28.8677   45.0847  -10.3112 C.3     1  UNL1        0.1123
     36 N         -29.6474   45.8343   -9.3124 N.pl3   1  UNL1       -0.3041
     37 C         -31.0857   46.0718   -9.5263 C.3     1  UNL1        0.1123
     38 C         -31.5014   45.7215  -10.9571 C.3     1  UNL1        0.1152
     39 C         -29.0351   46.2530   -8.0783 C.ar    1  UNL1        0.0480
     40 C         -28.3007   47.4460   -8.0190 C.ar    1  UNL1        0.0160
     41 C         -27.7202   47.8611   -6.8170 C.ar    1  UNL1        0.0188
     42 C         -27.8777   47.0989   -5.6443 C.ar    1  UNL1        0.0642
     43 C         -28.6037   45.8975   -5.7129 C.ar    1  UNL1        0.0188
     44 C         -29.1734   45.4787   -6.9162 C.ar    1  UNL1        0.0160
     45 N         -27.3256   47.5510   -4.3897 N.ar    1  UNL1       -0.3036
     46 C         -27.1704   46.8196   -3.2652 C.ar    1  UNL1        0.0802
     47 C         -26.5824   47.5864   -2.2808 C.ar    1  UNL1        0.0205
     48 C         -26.3689   48.8346   -2.8278 C.ar    1  UNL1        0.0205
     49 C         -26.8375   48.7821   -4.1234 C.ar    1  UNL1        0.0802
@<TRIPOS>BOND
     1     1     2    2
     2     2    27    1
     3    27    28    2
     4    28    29    1
     5    28    31    1
     6    31    32    2
     7    31    33   am
     8    33    34    1
     9    34    35    1
    10    35    36    1
    11    36    39    1
    12    39    40   ar
    13    40    41   ar
    14    41    42   ar
    15    42    45    1
    16    45    46   ar
    17    46    47   ar
    18    47    48   ar
    19    48    49   ar
    20    42    43   ar
    21    43    44   ar
    22    36    37    1
    23    37    38    1
    24     2     3    1
    25     3     4    2
    26     4     5    1
    27     5    10    1
    28    10    11    1
    29    11    12   ar
    30    12    13   ar
    31    13    14    1
    32    13    15   ar
    33    15    16   ar
    34    16    17    1
    35    16    18   ar
    36     5     6    2
    37     6     7    1
    38     7    19    1
    39    19    20    1
    40    20    21   ar
    41    21    22   ar
    42    22    23   ar
    43    23    24   ar
    44    24    25   ar
    45    25    26    1
    46     7     8    1
    47     8     9    2
    48    38    33    1
    49     8     3    1
    50    44    39   ar
    51    18    11   ar
    52    25    20   ar
    53    49    45   ar
    54    29    30    1
@<TRIPOS>MOLECULE
*****
 49 54 0 0 0
SMALL
GASTEIGER

@<TRIPOS>ATOM
      1 O         -26.7723   52.8293   -7.7926 O.2     1  UNL1       -0.2861
      2 C         -26.5085   51.6025   -7.9162 C.2     1  UNL1        0.2080
      3 C         -27.1121   50.6274   -6.9813 C.2     1  UNL1        0.1445
      4 C         -26.5210   50.4125   -5.7328 C.2     1  UNL1        0.0149
      5 C         -27.1251   49.5592   -4.8060 C.2     1  UNL1        0.0516
      6 C         -28.2984   48.8866   -5.1672 C.2     1  UNL1        0.2813
      7 N         -28.8601   49.0643   -6.4010 N.am    1  UNL1       -0.1016
      8 C         -28.2944   49.9303   -7.3051 C.2     1  UNL1        0.4213
      9 O         -28.8182   50.0906   -8.4427 O.2     1  UNL1       -0.2139
     10 C         -26.5032   49.3331   -3.4551 C.3     1  UNL1        0.0590
     11 C         -26.7064   47.9071   -3.0229 C.ar    1  UNL1       -0.0131
     12 C         -27.9085   47.5181   -2.4087 C.ar    1  UNL1        0.0259
     13 C         -28.0824   46.2007   -1.9724 C.ar    1  UNL1        0.1421
     14 F         -29.2463   45.8302   -1.3840 F       1  UNL1       -0.2041
     15 C         -27.0554   45.2669   -2.1382 C.ar    1  UNL1        0.0592
     16 C         -25.8516   45.6496   -2.7371 C.ar    1  UNL1        0.1421
     17 F         -24.8534   44.7448   -2.8899 F       1  UNL1       -0.2041
     18 C         -25.6741   46.9660   -3.1747 C.ar    1  UNL1        0.0259
     19 C         -30.0853   48.3157   -6.7303 C.3     1  UNL1        0.3475
     20 C         -30.1896   47.0650   -5.8943 C.ar    1  UNL1        0.0823
     21 C         -31.1515   46.9826   -4.8727 C.ar    1  UNL1        0.0047
     22 C         -31.2774   45.8160   -4.1136 C.ar    1  UNL1        0.0000
     23 C         -30.4393   44.7263   -4.3600 C.ar    1  UNL1        0.0023
     24 C         -29.4643   44.8061   -5.3566 C.ar    1  UNL1        0.0295
     25 C         -29.3332   45.9701   -6.1210 C.ar    1  UNL1        0.1426
     26 F         -28.3818   46.0206   -7.0873 F       1  UNL1       -0.2043
     27 C         -25.6681   51.1173   -9.0300 C.2     1  UNL1        0.0837
     28 C         -24.8838   51.8953   -9.7928 C.2     1  UNL1        0.1910
     29 O         -24.7774   53.2597   -9.5185 O.2     1  UNL1       -0.5018
     30 H         -24.2002   53.8745  -10.0795 H       1  UNL1        0.2924
     31 C         -24.1111   51.3135  -10.9192 C.2     1  UNL1        0.2831
     32 O         -24.6229   50.4049  -11.6253 O.2     1  UNL1       -0.2666
     33 N         -22.7696   51.7397  -11.1961 N.am    1  UNL1       -0.2701
     34 C         -22.5373   52.8916  -12.0779 C.3     1  UNL1        0.1152
     35 C         -21.2107   53.5930  -11.7408 C.3     1  UNL1        0.1123
     36 N         -20.9671   53.5601  -10.2893 N.pl3   1  UNL1       -0.3041
     37 C         -21.0396   52.2831   -9.5581 C.3     1  UNL1        0.1123
     38 C         -21.6593   51.1813  -10.4212 C.3     1  UNL1        0.1152
     39 C         -20.5606   54.7535   -9.5939 C.ar    1  UNL1        0.0480
     40 C         -19.6990   54.6738   -8.4906 C.ar    1  UNL1        0.0160
     41 C         -19.2909   55.8337   -7.8256 C.ar    1  UNL1        0.0188
     42 C         -19.7234   57.0999   -8.2622 C.ar    1  UNL1        0.0642
     43 C         -20.5975   57.1726   -9.3604 C.ar    1  UNL1        0.0188
     44 C         -21.0127   56.0129  -10.0166 C.ar    1  UNL1        0.0160
     45 N         -19.2619   58.3030   -7.6119 N.ar    1  UNL1       -0.3036
     46 C         -18.7337   59.3926   -8.2097 C.ar    1  UNL1        0.0802
     47 C         -18.4369   60.3522   -7.2644 C.ar    1  UNL1        0.0205
     48 C         -18.8006   59.8274   -6.0417 C.ar    1  UNL1        0.0205
     49 C         -19.3023   58.5670   -6.2877 C.ar    1  UNL1        0.0802
@<TRIPOS>BOND
     1     1     2    2
     2     2    27    1
     3    27    28    2
     4    28    29    1
     5    28    31    1
     6    31    32    2
     7    31    33   am
     8    33    34    1
     9    34    35    1
    10    35    36    1
    11    36    39    1
    12    39    40   ar
    13    40    41   ar
    14    41    42   ar
    15    42    45    1
    16    45    46   ar
    17    46    47   ar
    18    47    48   ar
    19    48    49   ar
    20    42    43   ar
    21    43    44   ar
    22    36    37    1
    23    37    38    1
    24     2     3    1
    25     3     4    2
    26     4     5    1
    27     5    10    1
    28    10    11    1
    29    11    12   ar
    30    12    13   ar
    31    13    14    1
    32    13    15   ar
    33    15    16   ar
    34    16    17    1
    35    16    18   ar
    36     5     6    2
    37     6     7    1
    38     7    19    1
    39    19    20    1
    40    20    21   ar
    41    21    22   ar
    42    22    23   ar
    43    23    24   ar
    44    24    25   ar
    45    25    26    1
    46     7     8    1
    47     8     9    2
    48    38    33    1
    49     8     3    1
    50    44    39   ar
    51    18    11   ar
    52    25    20   ar
    53    49    45   ar
    54    29    30    1
@<TRIPOS>MOLECULE
*****
 49 54 0 0 0
SMALL
GASTEIGER

@<TRIPOS>ATOM
      1 O         -26.2889   52.0511   -4.5267 O.2     1  UNL1       -0.2861
      2 C         -26.6928   50.9908   -5.0767 C.2     1  UNL1        0.2080
      3 C         -26.9301   50.9698   -6.5370 C.2     1  UNL1        0.1445
      4 C         -25.9028   50.5699   -7.3966 C.2     1  UNL1        0.0149
      5 C         -26.1363   50.4632   -8.7701 C.2     1  UNL1        0.0516
      6 C         -27.3950   50.8122   -9.2734 C.2     1  UNL1        0.2813
      7 N         -28.3919   51.2399   -8.4411 N.am    1  UNL1       -0.1016
      8 C         -28.1835   51.3117   -7.0851 C.2     1  UNL1        0.4213
      9 O         -29.1083   51.7070   -6.3216 O.2     1  UNL1       -0.2139
     10 C         -25.0404   50.0204   -9.7005 C.3     1  UNL1        0.0590
     11 C         -23.9899   51.0907   -9.8109 C.ar    1  UNL1       -0.0131
     12 C         -23.8933   51.8702  -10.9758 C.ar    1  UNL1        0.0259
     13 C         -22.8921   52.8397  -11.0934 C.ar    1  UNL1        0.1421
     14 F         -22.8063   53.5916  -12.2184 F       1  UNL1       -0.2041
     15 C         -21.9768   53.0308  -10.0542 C.ar    1  UNL1        0.0592
     16 C         -22.0589   52.2505   -8.8972 C.ar    1  UNL1        0.1421
     17 F         -21.1656   52.4315   -7.8934 F       1  UNL1       -0.2041
     18 C         -23.0587   51.2801   -8.7759 C.ar    1  UNL1        0.0259
     19 C         -29.6900   51.6100   -9.0310 C.3     1  UNL1        0.3475
     20 C         -29.8131   51.0723  -10.4345 C.ar    1  UNL1        0.0823
     21 C         -29.3024   51.8111  -11.5157 C.ar    1  UNL1        0.0047
     22 C         -29.3831   51.3068  -12.8165 C.ar    1  UNL1        0.0000
     23 C         -29.9820   50.0671  -13.0511 C.ar    1  UNL1        0.0023
     24 C         -30.5140   49.3357  -11.9871 C.ar    1  UNL1        0.0295
     25 C         -30.4360   49.8337  -10.6823 C.ar    1  UNL1        0.1426
     26 F         -30.9554   49.1013   -9.6649 F       1  UNL1       -0.2043
     27 C         -26.8568   49.7478   -4.2956 C.2     1  UNL1        0.0837
     28 C         -28.0261   49.2911   -3.8195 C.2     1  UNL1        0.1910
     29 O         -29.2091   49.9752   -4.1034 O.2     1  UNL1       -0.5018
     30 H         -30.1059   49.6607   -3.7531 H       1  UNL1        0.2924
     31 C         -28.0760   48.0506   -3.0053 C.2     1  UNL1        0.2831
     32 O         -27.9340   48.1164   -1.7558 O.2     1  UNL1       -0.2666
     33 N         -28.2435   46.7659   -3.6215 N.am    1  UNL1       -0.2701
     34 C         -29.5950   46.2488   -3.8750 C.3     1  UNL1        0.1152
     35 C         -29.6053   45.2762   -5.0664 C.3     1  UNL1        0.1123
     36 N         -28.6466   45.7137   -6.0944 N.pl3   1  UNL1       -0.3041
     37 C         -27.2520   46.0111   -5.7236 C.3     1  UNL1        0.1123
     38 C         -27.0838   46.0871   -4.2041 C.3     1  UNL1        0.1152
     39 C         -29.0371   45.7584   -7.4796 C.ar    1  UNL1        0.0480
     40 C         -30.1011   44.9715   -7.9431 C.ar    1  UNL1        0.0160
     41 C         -30.4912   45.0272   -9.2843 C.ar    1  UNL1        0.0188
     42 C         -29.8351   45.8855  -10.1864 C.ar    1  UNL1        0.0642
     43 C         -28.7609   46.6620   -9.7190 C.ar    1  UNL1        0.0188
     44 C         -28.3654   46.5971   -8.3821 C.ar    1  UNL1        0.0160
     45 N         -30.2692   45.9859  -11.5592 N.ar    1  UNL1       -0.3036
     46 C         -29.4805   46.0372  -12.6542 C.ar    1  UNL1        0.0802
     47 C         -30.2568   46.1020  -13.7924 C.ar    1  UNL1        0.0205
     48 C         -31.5714   46.0878  -13.3748 C.ar    1  UNL1        0.0205
     49 C         -31.5464   46.0179  -11.9981 C.ar    1  UNL1        0.0802
@<TRIPOS>BOND
     1     1     2    2
     2     2    27    1
     3    27    28    2
     4    28    29    1
     5    28    31    1
     6    31    32    2
     7    31    33   am
     8    33    34    1
     9    34    35    1
    10    35    36    1
    11    36    39    1
    12    39    40   ar
    13    40    41   ar
    14    41    42   ar
    15    42    45    1
    16    45    46   ar
    17    46    47   ar
    18    47    48   ar
    19    48    49   ar
    20    42    43   ar
    21    43    44   ar
    22    36    37    1
    23    37    38    1
    24     2     3    1
    25     3     4    2
    26     4     5    1
    27     5    10    1
    28    10    11    1
    29    11    12   ar
    30    12    13   ar
    31    13    14    1
    32    13    15   ar
    33    15    16   ar
    34    16    17    1
    35    16    18   ar
    36     5     6    2
    37     6     7    1
    38     7    19    1
    39    19    20    1
    40    20    21   ar
    41    21    22   ar
    42    22    23   ar
    43    23    24   ar
    44    24    25   ar
    45    25    26    1
    46     7     8    1
    47     8     9    2
    48    38    33    1
    49     8     3    1
    50    44    39   ar
    51    18    11   ar
    52    25    20   ar
    53    49    45   ar
    54    29    30    1
