@<TRIPOS>MOLECULE
*****
 61 65 0 0 0
SMALL
GASTEIGER

@<TRIPOS>ATOM
      1 C          50.0433   12.5978  -25.0774 C.ar    1  UNL1        0.0993
      2 C          50.0162   11.5235  -25.9793 C.ar    1  UNL1        0.0235
      3 C          51.1981   11.0468  -26.5730 C.ar    1  UNL1        0.0548
      4 C          52.4106   11.6891  -26.2766 C.ar    1  UNL1        0.0077
      5 C          52.4394   12.7842  -25.4133 C.ar    1  UNL1        0.0390
      6 C          51.2611   13.2383  -24.7939 C.ar    1  UNL1        0.1598
      7 C          51.1868    9.8627  -27.4674 C.2     1  UNL1        0.2458
      8 O          52.2081    9.1250  -27.5142 O.2     1  UNL1       -0.2701
      9 N          50.0379    9.5578  -28.2836 N.am    1  UNL1       -0.3040
     10 H          49.3231   10.3101  -28.4050 H       1  UNL1        0.1496
     11 C          49.8180    8.2776  -28.9866 C.3     1  UNL1        0.0572
     12 C          49.5718    7.1430  -27.9725 C.3     1  UNL1        0.0196
     13 C          51.0299    7.9439  -29.8783 C.3     1  UNL1        0.0196
     14 C          48.5702    8.4066  -29.8849 C.3     1  UNL1        0.0196
     15 N          48.8388   13.0248  -24.4254 N.pl3   1  UNL1       -0.2120
     16 H          48.9082   13.6076  -23.5617 H       1  UNL1        0.1738
     17 S          47.3221   12.2362  -24.7229 S.O2    1  UNL1        0.0745
     18 O          47.5447   10.7495  -24.7202 O.2     1  UNL1       -0.1499
     19 O          46.3552   12.5536  -23.6180 O.2     1  UNL1       -0.1499
     20 C          46.1060   14.3584  -28.0631 C.ar    1  UNL1       -0.0146
     21 C          46.0847   13.2971  -29.0193 C.ar    1  UNL1       -0.0256
     22 C          46.2952   11.9790  -28.5969 C.ar    1  UNL1       -0.0032
     23 C          46.6451   11.6972  -27.2865 C.ar    1  UNL1        0.0207
     24 C          46.7311   12.7107  -26.3327 C.ar    1  UNL1        0.1353
     25 C          46.4241   14.0451  -26.7034 C.ar    1  UNL1        0.0722
     26 CL         46.4070   15.2980  -25.4595 Cl      1  UNL1       -0.0812
     27 C          47.0060   16.7367  -28.2645 C.3     1  UNL1        0.0047
     28 C          45.8140   15.8020  -28.5150 C.3     1  UNL1        0.0229
     29 C          44.4995   16.3677  -27.9520 C.3     1  UNL1        0.0047
     30 C          45.7498   13.5260  -30.4804 C.3     1  UNL1        0.0221
     31 C          44.8286   12.5104  -31.1541 C.3     1  UNL1        0.0047
     32 C          46.3174   12.4720  -31.4260 C.3     1  UNL1        0.0047
     33 O          51.2741   14.3191  -23.8968 O.3     1  UNL1       -0.4513
     34 C          51.3347   14.1827  -22.5053 C.ar    1  UNL1        0.1580
     35 C          52.4974   13.6642  -21.9275 C.ar    1  UNL1        0.0677
     36 C          52.5669   13.4448  -20.5490 C.ar    1  UNL1        0.1398
     37 F          53.6814   12.8726  -20.0271 F       1  UNL1       -0.2044
     38 C          51.4776   13.7806  -19.7248 C.ar    1  UNL1        0.0175
     39 C          50.3307   14.3505  -20.3011 C.ar    1  UNL1        0.0130
     40 C          50.2549   14.5538  -21.6823 C.ar    1  UNL1        0.0919
     41 CL         48.8006   15.2766  -22.3537 Cl      1  UNL1       -0.0791
     42 C          51.4648   13.4057  -18.2661 C.3     1  UNL1        0.1382
     43 C          50.5448   12.2421  -18.0758 C.2     1  UNL1        0.3234
     44 O          49.4947   12.3728  -17.3899 O.2     1  UNL1       -0.2497
     45 O          50.8394   11.0301  -18.7087 O.3     1  UNL1       -0.4215
     46 C          49.9068   10.3285  -19.5285 C.3     1  UNL1        0.3207
     47 O          50.4387   10.2569  -20.8375 O.3     1  UNL1       -0.3070
     48 C          49.6717    9.3718  -21.6411 C.3     1  UNL1        0.2456
     49 C          48.1486    9.7130  -21.6282 C.3     1  UNL1        0.1781
     50 O          47.4550    8.6963  -20.9486 O.3     1  UNL1       -0.3790
     51 C          47.8976   11.0685  -20.9336 C.3     1  UNL1        0.1733
     52 O          48.4304   12.1094  -21.7143 O.3     1  UNL1       -0.3793
     53 C          48.5537   11.0926  -19.5374 C.3     1  UNL1        0.2106
     54 O          47.6752   10.5166  -18.6036 O.3     1  UNL1       -0.3766
     55 H          46.4932    8.8017  -21.1719 H       1  UNL1        0.2106
     56 H          47.8037   12.2524  -22.4711 H       1  UNL1        0.2105
     57 H          47.8759   10.9274  -17.7228 H       1  UNL1        0.2107
     58 C          50.2061    9.4326  -23.0422 C.2     1  UNL1        0.3439
     59 O          51.2787   10.0486  -23.2838 O.2     1  UNL1       -0.2475
     60 O          49.5408    8.7697  -24.0695 O.3     1  UNL1       -0.4785
     61 H          49.8990    8.7873  -25.0168 H       1  UNL1        0.2951
@<TRIPOS>BOND
     1    27    28    1
     2    28    29    1
     3    28    20    1
     4    20    21   ar
     5    21    30    1
     6    30    31    1
     7    31    32    1
     8    21    22   ar
     9    22    23   ar
    10    23    24   ar
    11    24    17    1
    12    17    18    2
    13    17    19    2
    14    17    15    1
    15    15     1    1
    16     1     2   ar
    17     2     3   ar
    18     3     7    1
    19     7     8    2
    20     7     9   am
    21     9    11    1
    22    11    12    1
    23    11    13    1
    24    11    14    1
    25     3     4   ar
    26     4     5   ar
    27     5     6   ar
    28     6    33    1
    29    33    34    1
    30    34    35   ar
    31    35    36   ar
    32    36    37    1
    33    36    38   ar
    34    38    42    1
    35    42    43    1
    36    43    44    2
    37    43    45    1
    38    45    46    1
    39    46    47    1
    40    47    48    1
    41    48    58    1
    42    58    59    2
    43    58    60    1
    44    48    49    1
    45    49    50    1
    46    49    51    1
    47    51    52    1
    48    51    53    1
    49    53    54    1
    50    38    39   ar
    51    39    40   ar
    52    40    41    1
    53    24    25   ar
    54    25    26    1
    55    25    20   ar
    56    32    30    1
    57     6     1   ar
    58    40    34   ar
    59    53    46    1
    60    15    16    1
    61     9    10    1
    62    60    61    1
    63    50    55    1
    64    52    56    1
    65    54    57    1
@<TRIPOS>MOLECULE
*****
 61 65 0 0 0
SMALL
GASTEIGER

@<TRIPOS>ATOM
      1 C          49.8033    9.1101  -28.6235 C.ar    1  UNL1        0.0993
      2 C          51.0576    8.6646  -29.0671 C.ar    1  UNL1        0.0235
      3 C          51.1780    7.8782  -30.2263 C.ar    1  UNL1        0.0548
      4 C          50.0134    7.5114  -30.9188 C.ar    1  UNL1        0.0077
      5 C          48.7597    7.9156  -30.4602 C.ar    1  UNL1        0.0390
      6 C          48.6436    8.7307  -29.3198 C.ar    1  UNL1        0.1598
      7 C          52.5072    7.4685  -30.7438 C.2     1  UNL1        0.2458
      8 O          52.6038    7.0900  -31.9425 O.2     1  UNL1       -0.2701
      9 N          53.6735    7.4866  -29.8961 N.am    1  UNL1       -0.3040
     10 H          53.5161    7.5646  -28.8662 H       1  UNL1        0.1496
     11 C          55.0659    7.3665  -30.3739 C.3     1  UNL1        0.0572
     12 C          55.7521    8.7468  -30.3823 C.3     1  UNL1        0.0196
     13 C          55.0939    6.7468  -31.7846 C.3     1  UNL1        0.0196
     14 C          55.8462    6.4410  -29.4172 C.3     1  UNL1        0.0196
     15 N          49.7050    9.9716  -27.4806 N.pl3   1  UNL1       -0.2120
     16 H          48.9745   10.7177  -27.4686 H       1  UNL1        0.1738
     17 S          51.0182   10.1377  -26.3587 S.O2    1  UNL1        0.0745
     18 O          51.8712    8.9019  -26.4310 O.2     1  UNL1       -0.1499
     19 O          51.8776   11.3071  -26.7468 O.2     1  UNL1       -0.1499
     20 C          48.9435   11.2980  -22.9693 C.ar    1  UNL1       -0.0146
     21 C          49.1630   10.1450  -22.1548 C.ar    1  UNL1       -0.0256
     22 C          50.0324    9.1400  -22.5957 C.ar    1  UNL1       -0.0032
     23 C          50.5902    9.1848  -23.8628 C.ar    1  UNL1        0.0207
     24 C          50.3573   10.2662  -24.7118 C.ar    1  UNL1        0.1353
     25 C          49.5638   11.3509  -24.2579 C.ar    1  UNL1        0.0722
     26 CL         49.3851   12.7727  -25.2893 Cl      1  UNL1       -0.0812
     27 C          46.7591   12.5728  -23.3014 C.3     1  UNL1        0.0047
     28 C          48.0357   12.4337  -22.4598 C.3     1  UNL1        0.0229
     29 C          48.7689   13.7740  -22.2844 C.3     1  UNL1        0.0047
     30 C          48.5580    9.9995  -20.7720 C.3     1  UNL1        0.0221
     31 C          49.1812   10.8228  -19.6458 C.3     1  UNL1        0.0047
     32 C          49.4808    9.3424  -19.7501 C.3     1  UNL1        0.0047
     33 O          47.3927    9.1747  -28.8604 O.3     1  UNL1       -0.4513
     34 C          46.8877   10.4612  -29.0809 C.ar    1  UNL1        0.1580
     35 C          46.6577   10.8804  -30.3946 C.ar    1  UNL1        0.0677
     36 C          46.2242   12.1828  -30.6574 C.ar    1  UNL1        0.1398
     37 F          46.0798   12.5830  -31.9462 F       1  UNL1       -0.2044
     38 C          45.9786   13.0730  -29.5963 C.ar    1  UNL1        0.0175
     39 C          46.1597   12.6327  -28.2750 C.ar    1  UNL1        0.0130
     40 C          46.6100   11.3352  -28.0132 C.ar    1  UNL1        0.0919
     41 CL         46.8140   10.8303  -26.3424 Cl      1  UNL1       -0.0791
     42 C          45.6691   14.5237  -29.8573 C.3     1  UNL1        0.1382
     43 C          45.6605   15.2566  -28.5537 C.2     1  UNL1        0.3234
     44 O          44.5924   15.7727  -28.1262 O.2     1  UNL1       -0.2497
     45 O          46.8358   15.3154  -27.7976 O.3     1  UNL1       -0.4215
     46 C          47.1443   16.3910  -26.9134 C.3     1  UNL1        0.3207
     47 O          48.2218   17.1210  -27.4678 O.3     1  UNL1       -0.3070
     48 C          48.4213   18.3349  -26.7578 C.3     1  UNL1        0.2456
     49 C          48.5713   18.1156  -25.2197 C.3     1  UNL1        0.1781
     50 O          47.4458   18.6484  -24.5670 O.3     1  UNL1       -0.3790
     51 C          48.7005   16.6128  -24.8915 C.3     1  UNL1        0.1733
     52 O          49.9223   16.1213  -25.3840 O.3     1  UNL1       -0.3793
     53 C          47.5399   15.8173  -25.5245 C.3     1  UNL1        0.2106
     54 O          46.4311   15.8515  -24.6615 O.3     1  UNL1       -0.3766
     55 H          47.6780   18.7259  -23.6046 H       1  UNL1        0.2106
     56 H          50.6308   16.4340  -24.7626 H       1  UNL1        0.2105
     57 H          45.9064   15.0258  -24.8282 H       1  UNL1        0.2107
     58 C          49.6472   19.0019  -27.3097 C.2     1  UNL1        0.3439
     59 O          50.7926   18.5831  -26.9914 O.2     1  UNL1       -0.2475
     60 O          49.5198   20.0558  -28.2099 O.3     1  UNL1       -0.4785
     61 H          50.3380   20.5042  -28.6041 H       1  UNL1        0.2951
@<TRIPOS>BOND
     1    27    28    1
     2    28    29    1
     3    28    20    1
     4    20    21   ar
     5    21    30    1
     6    30    31    1
     7    31    32    1
     8    21    22   ar
     9    22    23   ar
    10    23    24   ar
    11    24    17    1
    12    17    18    2
    13    17    19    2
    14    17    15    1
    15    15     1    1
    16     1     2   ar
    17     2     3   ar
    18     3     7    1
    19     7     8    2
    20     7     9   am
    21     9    11    1
    22    11    12    1
    23    11    13    1
    24    11    14    1
    25     3     4   ar
    26     4     5   ar
    27     5     6   ar
    28     6    33    1
    29    33    34    1
    30    34    35   ar
    31    35    36   ar
    32    36    37    1
    33    36    38   ar
    34    38    42    1
    35    42    43    1
    36    43    44    2
    37    43    45    1
    38    45    46    1
    39    46    47    1
    40    47    48    1
    41    48    58    1
    42    58    59    2
    43    58    60    1
    44    48    49    1
    45    49    50    1
    46    49    51    1
    47    51    52    1
    48    51    53    1
    49    53    54    1
    50    38    39   ar
    51    39    40   ar
    52    40    41    1
    53    24    25   ar
    54    25    26    1
    55    25    20   ar
    56    32    30    1
    57     6     1   ar
    58    40    34   ar
    59    53    46    1
    60    15    16    1
    61     9    10    1
    62    60    61    1
    63    50    55    1
    64    52    56    1
    65    54    57    1
@<TRIPOS>MOLECULE
*****
 61 65 0 0 0
SMALL
GASTEIGER

@<TRIPOS>ATOM
      1 C          48.0117   11.0479  -21.4410 C.ar    1  UNL1        0.0993
      2 C          48.7169   10.9960  -20.2292 C.ar    1  UNL1        0.0235
      3 C          48.1869   11.5658  -19.0583 C.ar    1  UNL1        0.0548
      4 C          46.9493   12.2244  -19.1269 C.ar    1  UNL1        0.0077
      5 C          46.2620   12.3164  -20.3371 C.ar    1  UNL1        0.0390
      6 C          46.7775   11.7163  -21.5001 C.ar    1  UNL1        0.1598
      7 C          48.8915   11.4472  -17.7576 C.2     1  UNL1        0.2458
      8 O          49.7729   10.5561  -17.6213 O.2     1  UNL1       -0.2701
      9 N          48.5731   12.3222  -16.6565 N.am    1  UNL1       -0.3040
     10 H          47.6862   12.8707  -16.7214 H       1  UNL1        0.1496
     11 C          49.3879   12.4704  -15.4336 C.3     1  UNL1        0.0572
     12 C          50.8832   12.5747  -15.7936 C.3     1  UNL1        0.0196
     13 C          49.1480   11.2795  -14.4854 C.3     1  UNL1        0.0196
     14 C          48.9709   13.7661  -14.7072 C.3     1  UNL1        0.0196
     15 N          48.5332   10.3987  -22.6092 N.pl3   1  UNL1       -0.2120
     16 H          48.3627    9.3769  -22.7410 H       1  UNL1        0.1738
     17 S          49.8093   11.1108  -23.5448 S.O2    1  UNL1        0.0745
     18 O          49.8973   12.5722  -23.2037 O.2     1  UNL1       -0.1499
     19 O          51.1231   10.4790  -23.1824 O.2     1  UNL1       -0.1499
     20 C          49.5633    9.8963  -27.4950 C.ar    1  UNL1       -0.0146
     21 C          48.4363   10.6711  -27.9079 C.ar    1  UNL1       -0.0256
     22 C          47.8909   11.6210  -27.0359 C.ar    1  UNL1       -0.0032
     23 C          48.3476   11.7387  -25.7334 C.ar    1  UNL1        0.0207
     24 C          49.4101   10.9622  -25.2724 C.ar    1  UNL1        0.1353
     25 C          50.0530   10.0622  -26.1604 C.ar    1  UNL1        0.0722
     26 CL         51.4796    9.1825  -25.6054 Cl      1  UNL1       -0.0812
     27 C          49.8481    7.4414  -28.1269 C.3     1  UNL1        0.0047
     28 C          50.2036    8.8941  -28.4743 C.3     1  UNL1        0.0229
     29 C          51.7167    9.0973  -28.6589 C.3     1  UNL1        0.0047
     30 C          47.8503   10.5739  -29.3031 C.3     1  UNL1        0.0221
     31 C          46.5268   11.2936  -29.5575 C.3     1  UNL1        0.0047
     32 C          46.5438    9.7901  -29.3809 C.3     1  UNL1        0.0047
     33 O          46.0854   11.7702  -22.7212 O.3     1  UNL1       -0.4513
     34 C          46.1148   12.8656  -23.5918 C.ar    1  UNL1        0.1580
     35 C          46.8845   13.9809  -23.2480 C.ar    1  UNL1        0.0677
     36 C          46.8800   15.1215  -24.0557 C.ar    1  UNL1        0.1398
     37 F          47.5794   16.2145  -23.6582 F       1  UNL1       -0.2044
     38 C          46.1282   15.1420  -25.2444 C.ar    1  UNL1        0.0175
     39 C          45.3978   14.0010  -25.6145 C.ar    1  UNL1        0.0130
     40 C          45.3887   12.8665  -24.7975 C.ar    1  UNL1        0.0919
     41 CL         44.4645   11.4619  -25.3085 Cl      1  UNL1       -0.0791
     42 C          45.9777   16.4091  -26.0446 C.3     1  UNL1        0.1382
     43 C          46.4989   16.1713  -27.4260 C.2     1  UNL1        0.3234
     44 O          46.1073   15.1703  -28.0854 O.2     1  UNL1       -0.2497
     45 O          47.3817   17.0982  -27.9899 O.3     1  UNL1       -0.4215
     46 C          48.7278   17.2652  -27.5491 C.3     1  UNL1        0.3207
     47 O          48.9799   16.3120  -26.5346 O.3     1  UNL1       -0.3070
     48 C          50.3645   16.2699  -26.2209 C.3     1  UNL1        0.2456
     49 C          50.9488   17.6773  -25.8830 C.3     1  UNL1        0.1781
     50 O          51.8318   18.0667  -26.9054 O.3     1  UNL1       -0.3790
     51 C          49.8189   18.7202  -25.7460 C.3     1  UNL1        0.1733
     52 O          49.0449   18.4365  -24.6070 O.3     1  UNL1       -0.3793
     53 C          48.9120   18.7049  -26.9940 C.3     1  UNL1        0.2106
     54 O          49.4741   19.5289  -27.9842 O.3     1  UNL1       -0.3766
     55 H          52.3697   18.8229  -26.5520 H       1  UNL1        0.2106
     56 H          49.5704   18.7351  -23.8191 H       1  UNL1        0.2105
     57 H          48.7261   19.8643  -28.5435 H       1  UNL1        0.2107
     58 C          50.5516   15.3372  -25.0602 C.2     1  UNL1        0.3439
     59 O          50.3698   15.7483  -23.8828 O.2     1  UNL1       -0.2475
     60 O          50.8821   14.0040  -25.2858 O.3     1  UNL1       -0.4785
     61 H          50.9946   13.3587  -24.5133 H       1  UNL1        0.2951
@<TRIPOS>BOND
     1    27    28    1
     2    28    29    1
     3    28    20    1
     4    20    21   ar
     5    21    30    1
     6    30    31    1
     7    31    32    1
     8    21    22   ar
     9    22    23   ar
    10    23    24   ar
    11    24    17    1
    12    17    18    2
    13    17    19    2
    14    17    15    1
    15    15     1    1
    16     1     2   ar
    17     2     3   ar
    18     3     7    1
    19     7     8    2
    20     7     9   am
    21     9    11    1
    22    11    12    1
    23    11    13    1
    24    11    14    1
    25     3     4   ar
    26     4     5   ar
    27     5     6   ar
    28     6    33    1
    29    33    34    1
    30    34    35   ar
    31    35    36   ar
    32    36    37    1
    33    36    38   ar
    34    38    42    1
    35    42    43    1
    36    43    44    2
    37    43    45    1
    38    45    46    1
    39    46    47    1
    40    47    48    1
    41    48    58    1
    42    58    59    2
    43    58    60    1
    44    48    49    1
    45    49    50    1
    46    49    51    1
    47    51    52    1
    48    51    53    1
    49    53    54    1
    50    38    39   ar
    51    39    40   ar
    52    40    41    1
    53    24    25   ar
    54    25    26    1
    55    25    20   ar
    56    32    30    1
    57     6     1   ar
    58    40    34   ar
    59    53    46    1
    60    15    16    1
    61     9    10    1
    62    60    61    1
    63    50    55    1
    64    52    56    1
    65    54    57    1
@<TRIPOS>MOLECULE
*****
 61 65 0 0 0
SMALL
GASTEIGER

@<TRIPOS>ATOM
      1 C          49.9724    8.6133  -28.4434 C.ar    1  UNL1        0.0993
      2 C          51.2248    8.2155  -28.9351 C.ar    1  UNL1        0.0235
      3 C          51.3762    7.7814  -30.2637 C.ar    1  UNL1        0.0548
      4 C          50.2415    7.7163  -31.0875 C.ar    1  UNL1        0.0077
      5 C          48.9862    8.0704  -30.5933 C.ar    1  UNL1        0.0390
      6 C          48.8421    8.5368  -29.2742 C.ar    1  UNL1        0.1598
      7 C          52.7103    7.4329  -30.8123 C.2     1  UNL1        0.2458
      8 O          52.8088    7.1403  -32.0346 O.2     1  UNL1       -0.2701
      9 N          53.8797    7.4133  -29.9687 N.am    1  UNL1       -0.3040
     10 H          53.7251    7.4168  -28.9354 H       1  UNL1        0.1496
     11 C          55.2720    7.3519  -30.4576 C.3     1  UNL1        0.0572
     12 C          55.9061    8.7569  -30.4512 C.3     1  UNL1        0.0196
     13 C          55.3127    6.7534  -31.8772 C.3     1  UNL1        0.0196
     14 C          56.0933    6.4431  -29.5196 C.3     1  UNL1        0.0196
     15 N          49.8486    9.1220  -27.1078 N.pl3   1  UNL1       -0.2120
     16 H          48.9100    9.1235  -26.6501 H       1  UNL1        0.1738
     17 S          51.0630   10.1507  -26.4166 S.O2    1  UNL1        0.0745
     18 O          52.0905    9.2905  -25.7352 O.2     1  UNL1       -0.1499
     19 O          51.7607   10.9193  -27.5023 O.2     1  UNL1       -0.1499
     20 C          49.2965   11.6392  -22.9810 C.ar    1  UNL1       -0.0146
     21 C          49.4118   13.0383  -23.2463 C.ar    1  UNL1       -0.0256
     22 C          49.8795   13.4713  -24.4928 C.ar    1  UNL1       -0.0032
     23 C          50.3486   12.5675  -25.4319 C.ar    1  UNL1        0.0207
     24 C          50.3054   11.1947  -25.1911 C.ar    1  UNL1        0.1353
     25 C          49.7429   10.7166  -23.9799 C.ar    1  UNL1        0.0722
     26 CL         49.5719    8.9753  -23.7428 Cl      1  UNL1       -0.0812
     27 C          49.7151   10.2688  -20.8706 C.3     1  UNL1        0.0047
     28 C          48.7244   11.1601  -21.6332 C.3     1  UNL1        0.0229
     29 C          47.3318   10.5185  -21.7504 C.3     1  UNL1        0.0047
     30 C          48.9583   14.0934  -22.2561 C.3     1  UNL1        0.0221
     31 C          47.5489   14.6567  -22.4309 C.3     1  UNL1        0.0047
     32 C          48.7457   15.4753  -22.8664 C.3     1  UNL1        0.0047
     33 O          47.5919    8.9286  -28.7677 O.3     1  UNL1       -0.4513
     34 C          47.2488   10.2505  -28.4619 C.ar    1  UNL1        0.1580
     35 C          47.3516   10.6858  -27.1373 C.ar    1  UNL1        0.0677
     36 C          46.9482   11.9757  -26.7818 C.ar    1  UNL1        0.1398
     37 F          46.9915   12.3446  -25.4764 F       1  UNL1       -0.2044
     38 C          46.4696   12.8618  -27.7639 C.ar    1  UNL1        0.0175
     39 C          46.4170   12.4397  -29.1023 C.ar    1  UNL1        0.0130
     40 C          46.8044   11.1434  -29.4550 C.ar    1  UNL1        0.0919
     41 CL         46.7266   10.6661  -31.1444 Cl      1  UNL1       -0.0791
     42 C          45.8791   14.1943  -27.3842 C.3     1  UNL1        0.1382
     43 C          46.8775   14.9478  -26.5645 C.2     1  UNL1        0.3234
     44 O          46.5382   15.4466  -25.4572 O.2     1  UNL1       -0.2497
     45 O          48.1970   15.0451  -27.0184 O.3     1  UNL1       -0.4215
     46 C          48.8868   16.2855  -27.1584 C.3     1  UNL1        0.3207
     47 O          49.7361   16.4454  -26.0384 O.3     1  UNL1       -0.3070
     48 C          50.6192   17.5408  -26.2328 C.3     1  UNL1        0.2456
     49 C          49.8718   18.8570  -26.6141 C.3     1  UNL1        0.1781
     50 O          50.1719   19.1869  -27.9474 O.3     1  UNL1       -0.3790
     51 C          48.3463   18.6867  -26.4507 C.3     1  UNL1        0.1733
     52 O          48.0262   18.5450  -25.0889 O.3     1  UNL1       -0.3793
     53 C          47.8532   17.4442  -27.2211 C.3     1  UNL1        0.2106
     54 O          47.6125   17.7960  -28.5604 O.3     1  UNL1       -0.3766
     55 H          49.9018   20.1333  -28.0801 H       1  UNL1        0.2106
     56 H          48.0831   19.4496  -24.6834 H       1  UNL1        0.2105
     57 H          46.9114   17.1820  -28.9015 H       1  UNL1        0.2107
     58 C          51.4046   17.7365  -24.9691 C.2     1  UNL1        0.3439
     59 O          51.3020   16.9070  -24.0257 O.2     1  UNL1       -0.2475
     60 O          52.2823   18.8108  -24.8552 O.3     1  UNL1       -0.4785
     61 H          52.8320   18.9459  -24.0152 H       1  UNL1        0.2951
@<TRIPOS>BOND
     1    27    28    1
     2    28    29    1
     3    28    20    1
     4    20    21   ar
     5    21    30    1
     6    30    31    1
     7    31    32    1
     8    21    22   ar
     9    22    23   ar
    10    23    24   ar
    11    24    17    1
    12    17    18    2
    13    17    19    2
    14    17    15    1
    15    15     1    1
    16     1     2   ar
    17     2     3   ar
    18     3     7    1
    19     7     8    2
    20     7     9   am
    21     9    11    1
    22    11    12    1
    23    11    13    1
    24    11    14    1
    25     3     4   ar
    26     4     5   ar
    27     5     6   ar
    28     6    33    1
    29    33    34    1
    30    34    35   ar
    31    35    36   ar
    32    36    37    1
    33    36    38   ar
    34    38    42    1
    35    42    43    1
    36    43    44    2
    37    43    45    1
    38    45    46    1
    39    46    47    1
    40    47    48    1
    41    48    58    1
    42    58    59    2
    43    58    60    1
    44    48    49    1
    45    49    50    1
    46    49    51    1
    47    51    52    1
    48    51    53    1
    49    53    54    1
    50    38    39   ar
    51    39    40   ar
    52    40    41    1
    53    24    25   ar
    54    25    26    1
    55    25    20   ar
    56    32    30    1
    57     6     1   ar
    58    40    34   ar
    59    53    46    1
    60    15    16    1
    61     9    10    1
    62    60    61    1
    63    50    55    1
    64    52    56    1
    65    54    57    1
@<TRIPOS>MOLECULE
*****
 61 65 0 0 0
SMALL
GASTEIGER

@<TRIPOS>ATOM
      1 C          49.1756    9.3466  -28.4661 C.ar    1  UNL1        0.0993
      2 C          50.3798    8.7795  -28.9096 C.ar    1  UNL1        0.0235
      3 C          50.4381    8.0527  -30.1116 C.ar    1  UNL1        0.0548
      4 C          49.2581    7.8698  -30.8494 C.ar    1  UNL1        0.0077
      5 C          48.0491    8.3951  -30.3935 C.ar    1  UNL1        0.0390
      6 C          47.9990    9.1508  -29.2083 C.ar    1  UNL1        0.1598
      7 C          51.7230    7.5163  -30.6251 C.2     1  UNL1        0.2458
      8 O          51.7255    6.8777  -31.7122 O.2     1  UNL1       -0.2701
      9 N          52.9525    7.7048  -29.8957 N.am    1  UNL1       -0.3040
     10 H          52.8767    8.0137  -28.9006 H       1  UNL1        0.1496
     11 C          54.3031    7.4584  -30.4404 C.3     1  UNL1        0.0572
     12 C          55.0983    8.7764  -30.5219 C.3     1  UNL1        0.0196
     13 C          54.2054    6.8059  -31.8332 C.3     1  UNL1        0.0196
     14 C          55.0549    6.4939  -29.4998 C.3     1  UNL1        0.0196
     15 N          49.1485   10.1460  -27.2751 N.pl3   1  UNL1       -0.2120
     16 H          48.4116   10.8787  -27.1722 H       1  UNL1        0.1738
     17 S          50.5364   10.2749  -26.2417 S.O2    1  UNL1        0.0745
     18 O          51.3980    9.0592  -26.4405 O.2     1  UNL1       -0.1499
     19 O          51.3505   11.4774  -26.6263 O.2     1  UNL1       -0.1499
     20 C          48.5972   11.1333  -22.6862 C.ar    1  UNL1       -0.0146
     21 C          49.0255   10.0130  -21.9100 C.ar    1  UNL1       -0.0256
     22 C          49.9804    9.1322  -22.4321 C.ar    1  UNL1       -0.0032
     23 C          50.4284    9.2576  -23.7369 C.ar    1  UNL1        0.0207
     24 C          49.9935   10.3054  -24.5476 C.ar    1  UNL1        0.1353
     25 C          49.1043   11.2749  -24.0170 C.ar    1  UNL1        0.0722
     26 CL         48.6649   12.6686  -25.0080 Cl      1  UNL1       -0.0812
     27 C          46.2948   12.2090  -22.9079 C.3     1  UNL1        0.0047
     28 C          47.5927   12.1382  -22.0906 C.3     1  UNL1        0.0229
     29 C          48.1961   13.5285  -21.8305 C.3     1  UNL1        0.0047
     30 C          48.5528    9.7809  -20.4881 C.3     1  UNL1        0.0221
     31 C          49.1042   10.7094  -19.4074 C.3     1  UNL1        0.0047
     32 C          49.6434    9.3005  -19.5356 C.3     1  UNL1        0.0047
     33 O          46.7975    9.7152  -28.7490 O.3     1  UNL1       -0.4513
     34 C          46.5731   11.0914  -28.6286 C.ar    1  UNL1        0.1580
     35 C          46.4675   11.6491  -27.3509 C.ar    1  UNL1        0.0677
     36 C          46.1705   13.0055  -27.1920 C.ar    1  UNL1        0.1398
     37 F          46.0024   13.5020  -25.9401 F       1  UNL1       -0.2044
     38 C          46.0126   13.8307  -28.3201 C.ar    1  UNL1        0.0175
     39 C          46.1714   13.2791  -29.6018 C.ar    1  UNL1        0.0130
     40 C          46.4513   11.9186  -29.7608 C.ar    1  UNL1        0.0919
     41 CL         46.6478   11.2783  -31.3855 Cl      1  UNL1       -0.0791
     42 C          45.5345   15.2521  -28.1799 C.3     1  UNL1        0.1382
     43 C          46.5669   16.0364  -27.4347 C.2     1  UNL1        0.3234
     44 O          46.3217   16.4592  -26.2723 O.2     1  UNL1       -0.2497
     45 O          47.8181   16.2476  -28.0234 O.3     1  UNL1       -0.4215
     46 C          48.9324   16.7918  -27.3191 C.3     1  UNL1        0.3207
     47 O          49.0781   16.0773  -26.1068 O.3     1  UNL1       -0.3070
     48 C          50.3045   16.4122  -25.4733 C.3     1  UNL1        0.2456
     49 C          50.4874   17.9515  -25.2903 C.3     1  UNL1        0.1781
     50 O          51.5230   18.3951  -26.1315 O.3     1  UNL1       -0.3790
     51 C          49.1823   18.7018  -25.6315 C.3     1  UNL1        0.1733
     52 O          48.1968   18.4021  -24.6744 O.3     1  UNL1       -0.3793
     53 C          48.6729   18.2964  -27.0302 C.3     1  UNL1        0.2106
     54 O          49.3125   19.0853  -28.0018 O.3     1  UNL1       -0.3766
     55 H          51.7852   19.2997  -25.8169 H       1  UNL1        0.2106
     56 H          48.4177   18.9244  -23.8593 H       1  UNL1        0.2105
     57 H          48.6957   19.1506  -28.7765 H       1  UNL1        0.2107
     58 C          50.3450   15.7220  -24.1413 C.2     1  UNL1        0.3439
     59 O          49.6165   16.1279  -23.1963 O.2     1  UNL1       -0.2475
     60 O          51.1543   14.6039  -23.9618 O.3     1  UNL1       -0.4785
     61 H          51.1788   14.1174  -23.0737 H       1  UNL1        0.2951
@<TRIPOS>BOND
     1    27    28    1
     2    28    29    1
     3    28    20    1
     4    20    21   ar
     5    21    30    1
     6    30    31    1
     7    31    32    1
     8    21    22   ar
     9    22    23   ar
    10    23    24   ar
    11    24    17    1
    12    17    18    2
    13    17    19    2
    14    17    15    1
    15    15     1    1
    16     1     2   ar
    17     2     3   ar
    18     3     7    1
    19     7     8    2
    20     7     9   am
    21     9    11    1
    22    11    12    1
    23    11    13    1
    24    11    14    1
    25     3     4   ar
    26     4     5   ar
    27     5     6   ar
    28     6    33    1
    29    33    34    1
    30    34    35   ar
    31    35    36   ar
    32    36    37    1
    33    36    38   ar
    34    38    42    1
    35    42    43    1
    36    43    44    2
    37    43    45    1
    38    45    46    1
    39    46    47    1
    40    47    48    1
    41    48    58    1
    42    58    59    2
    43    58    60    1
    44    48    49    1
    45    49    50    1
    46    49    51    1
    47    51    52    1
    48    51    53    1
    49    53    54    1
    50    38    39   ar
    51    39    40   ar
    52    40    41    1
    53    24    25   ar
    54    25    26    1
    55    25    20   ar
    56    32    30    1
    57     6     1   ar
    58    40    34   ar
    59    53    46    1
    60    15    16    1
    61     9    10    1
    62    60    61    1
    63    50    55    1
    64    52    56    1
    65    54    57    1
@<TRIPOS>MOLECULE
*****
 61 65 0 0 0
SMALL
GASTEIGER

@<TRIPOS>ATOM
      1 C          49.7976   11.7072  -25.8933 C.ar    1  UNL1        0.0993
      2 C          50.1857   10.6895  -26.7776 C.ar    1  UNL1        0.0235
      3 C          51.5163   10.5826  -27.2189 C.ar    1  UNL1        0.0548
      4 C          52.4507   11.5373  -26.7878 C.ar    1  UNL1        0.0077
      5 C          52.0629   12.5762  -25.9418 C.ar    1  UNL1        0.0390
      6 C          50.7391   12.6619  -25.4743 C.ar    1  UNL1        0.1598
      7 C          51.9500    9.4641  -28.0925 C.2     1  UNL1        0.2458
      8 O          51.1268    8.5484  -28.3635 O.2     1  UNL1       -0.2701
      9 N          53.2915    9.4077  -28.6183 N.am    1  UNL1       -0.3040
     10 H          54.0038   10.0354  -28.1821 H       1  UNL1        0.1496
     11 C          53.7371    8.5047  -29.6987 C.3     1  UNL1        0.0572
     12 C          53.8040    7.0509  -29.1907 C.3     1  UNL1        0.0196
     13 C          55.1135    8.9489  -30.2311 C.3     1  UNL1        0.0196
     14 C          52.7203    8.5691  -30.8574 C.3     1  UNL1        0.0196
     15 N          48.4528   11.7587  -25.3962 N.pl3   1  UNL1       -0.2120
     16 H          48.1274   11.0191  -24.7348 H       1  UNL1        0.1738
     17 S          47.2289   12.6929  -26.1963 S.O2    1  UNL1        0.0745
     18 O          47.1397   12.2424  -27.6278 O.2     1  UNL1       -0.1499
     19 O          45.8935   12.4417  -25.5562 O.2     1  UNL1       -0.1499
     20 C          47.5590   16.7362  -25.3706 C.ar    1  UNL1       -0.0146
     21 C          48.7901   17.0119  -26.0410 C.ar    1  UNL1       -0.0256
     22 C          49.3909   16.0186  -26.8237 C.ar    1  UNL1       -0.0032
     23 C          48.8769   14.7329  -26.8624 C.ar    1  UNL1        0.0207
     24 C          47.7068   14.4067  -26.1776 C.ar    1  UNL1        0.1353
     25 C          47.0161   15.4149  -25.4576 C.ar    1  UNL1        0.0722
     26 CL         45.4676   15.0229  -24.7054 Cl      1  UNL1       -0.0812
     27 C          46.5672   17.4062  -23.1179 C.3     1  UNL1        0.0047
     28 C          46.8642   17.8460  -24.5587 C.3     1  UNL1        0.0229
     29 C          45.6269   18.4345  -25.2568 C.3     1  UNL1        0.0047
     30 C          49.4401   18.3817  -26.0163 C.3     1  UNL1        0.0221
     31 C          49.3746   19.2100  -27.2984 C.3     1  UNL1        0.0047
     32 C          50.6630   18.5114  -26.9190 C.3     1  UNL1        0.0047
     33 O          50.3363   13.6819  -24.5965 O.3     1  UNL1       -0.4513
     34 C          50.8372   13.8439  -23.2997 C.ar    1  UNL1        0.1580
     35 C          52.1917   13.5917  -23.0626 C.ar    1  UNL1        0.0677
     36 C          52.7113   13.6713  -21.7677 C.ar    1  UNL1        0.1398
     37 F          54.0132   13.3498  -21.5580 F       1  UNL1       -0.2044
     38 C          51.8810   14.0441  -20.6952 C.ar    1  UNL1        0.0175
     39 C          50.5328   14.3484  -20.9444 C.ar    1  UNL1        0.0130
     40 C          50.0092   14.2518  -22.2372 C.ar    1  UNL1        0.0919
     41 CL         48.3175   14.6500  -22.4980 Cl      1  UNL1       -0.0791
     42 C          52.3749   13.9798  -19.2738 C.3     1  UNL1        0.1382
     43 C          52.0728   12.6240  -18.7197 C.2     1  UNL1        0.3234
     44 O          52.9866   11.7595  -18.6321 O.2     1  UNL1       -0.2497
     45 O          50.7820   12.3498  -18.2559 O.3     1  UNL1       -0.4215
     46 C          49.9439   11.3448  -18.8230 C.3     1  UNL1        0.3207
     47 O          50.1809   11.3097  -20.2172 O.3     1  UNL1       -0.3070
     48 C          49.5544   10.1772  -20.8025 C.3     1  UNL1        0.2456
     49 C          48.0378   10.0769  -20.4472 C.3     1  UNL1        0.1781
     50 O          47.8350    8.9708  -19.6033 O.3     1  UNL1       -0.3790
     51 C          47.5544   11.3634  -19.7443 C.3     1  UNL1        0.1733
     52 O          47.5786   12.4386  -20.6500 O.3     1  UNL1       -0.3793
     53 C          48.4569   11.6944  -18.5375 C.3     1  UNL1        0.2106
     54 O          48.0068   10.9802  -17.4139 O.3     1  UNL1       -0.3766
     55 H          46.8601    8.7818  -19.6016 H       1  UNL1        0.2106
     56 H          46.7911   12.3323  -21.2454 H       1  UNL1        0.2105
     57 H          48.2613   11.5072  -16.6124 H       1  UNL1        0.2107
     58 C          49.7352   10.2611  -22.2900 C.2     1  UNL1        0.3439
     59 O          50.8856   10.4218  -22.7792 O.2     1  UNL1       -0.2475
     60 O          48.6374   10.1160  -23.1332 O.3     1  UNL1       -0.4785
     61 H          48.7466   10.1529  -24.1395 H       1  UNL1        0.2951
@<TRIPOS>BOND
     1    27    28    1
     2    28    29    1
     3    28    20    1
     4    20    21   ar
     5    21    30    1
     6    30    31    1
     7    31    32    1
     8    21    22   ar
     9    22    23   ar
    10    23    24   ar
    11    24    17    1
    12    17    18    2
    13    17    19    2
    14    17    15    1
    15    15     1    1
    16     1     2   ar
    17     2     3   ar
    18     3     7    1
    19     7     8    2
    20     7     9   am
    21     9    11    1
    22    11    12    1
    23    11    13    1
    24    11    14    1
    25     3     4   ar
    26     4     5   ar
    27     5     6   ar
    28     6    33    1
    29    33    34    1
    30    34    35   ar
    31    35    36   ar
    32    36    37    1
    33    36    38   ar
    34    38    42    1
    35    42    43    1
    36    43    44    2
    37    43    45    1
    38    45    46    1
    39    46    47    1
    40    47    48    1
    41    48    58    1
    42    58    59    2
    43    58    60    1
    44    48    49    1
    45    49    50    1
    46    49    51    1
    47    51    52    1
    48    51    53    1
    49    53    54    1
    50    38    39   ar
    51    39    40   ar
    52    40    41    1
    53    24    25   ar
    54    25    26    1
    55    25    20   ar
    56    32    30    1
    57     6     1   ar
    58    40    34   ar
    59    53    46    1
    60    15    16    1
    61     9    10    1
    62    60    61    1
    63    50    55    1
    64    52    56    1
    65    54    57    1
@<TRIPOS>MOLECULE
*****
 61 65 0 0 0
SMALL
GASTEIGER

@<TRIPOS>ATOM
      1 C          51.3237    9.6598  -27.3832 C.ar    1  UNL1        0.0993
      2 C          52.5801    9.5264  -27.9932 C.ar    1  UNL1        0.0235
      3 C          52.7147    8.8964  -29.2429 C.ar    1  UNL1        0.0548
      4 C          51.5708    8.3661  -29.8598 C.ar    1  UNL1        0.0077
      5 C          50.3247    8.4580  -29.2398 C.ar    1  UNL1        0.0390
      6 C          50.1866    9.1186  -28.0058 C.ar    1  UNL1        0.1598
      7 C          54.0285    8.8204  -29.9289 C.2     1  UNL1        0.2458
      8 O          54.4076    9.7981  -30.6288 O.2     1  UNL1       -0.2701
      9 N          54.8606    7.6483  -29.8150 N.am    1  UNL1       -0.3040
     10 H          54.4162    6.7797  -29.4411 H       1  UNL1        0.1496
     11 C          56.2789    7.5776  -30.2209 C.3     1  UNL1        0.0572
     12 C          57.0325    8.8420  -29.7632 C.3     1  UNL1        0.0196
     13 C          56.3885    7.4137  -31.7494 C.3     1  UNL1        0.0196
     14 C          56.9323    6.3518  -29.5492 C.3     1  UNL1        0.0196
     15 N          51.1941   10.3690  -26.1429 N.pl3   1  UNL1       -0.2120
     16 H          51.4123   11.3898  -26.1166 H       1  UNL1        0.1738
     17 S          51.1585    9.5324  -24.6232 S.O2    1  UNL1        0.0745
     18 O          50.5115    8.1910  -24.8282 O.2     1  UNL1       -0.1499
     19 O          52.5598    9.2923  -24.1385 O.2     1  UNL1       -0.1499
     20 C          49.5203   12.5197  -22.2712 C.ar    1  UNL1       -0.0146
     21 C          48.3140   11.8671  -21.8712 C.ar    1  UNL1       -0.0256
     22 C          48.1106   10.5222  -22.2027 C.ar    1  UNL1       -0.0032
     23 C          49.0035    9.8454  -23.0173 C.ar    1  UNL1        0.0207
     24 C          50.1668   10.4626  -23.4755 C.ar    1  UNL1        0.1353
     25 C          50.4551   11.7924  -23.0746 C.ar    1  UNL1        0.0722
     26 CL         51.9929   12.5172  -23.5514 Cl      1  UNL1       -0.0812
     27 C          50.1742   14.8592  -23.0497 C.3     1  UNL1        0.0047
     28 C          49.7743   13.9812  -21.8553 C.3     1  UNL1        0.0229
     29 C          50.7483   14.1230  -20.6738 C.3     1  UNL1        0.0047
     30 C          47.2670   12.5495  -21.0125 C.3     1  UNL1        0.0221
     31 C          47.2127   12.1618  -19.5357 C.3     1  UNL1        0.0047
     32 C          46.1760   11.6171  -20.4951 C.3     1  UNL1        0.0047
     33 O          48.9356    9.2498  -27.3806 O.3     1  UNL1       -0.4513
     34 C          48.2046   10.4422  -27.3314 C.ar    1  UNL1        0.1580
     35 C          48.4086   11.3156  -26.2589 C.ar    1  UNL1        0.0677
     36 C          47.6444   12.4794  -26.1374 C.ar    1  UNL1        0.1398
     37 F          47.8146   13.2700  -25.0474 F       1  UNL1       -0.2044
     38 C          46.6874   12.8013  -27.1168 C.ar    1  UNL1        0.0175
     39 C          46.5215   11.9492  -28.2207 C.ar    1  UNL1        0.0130
     40 C          47.2739   10.7761  -28.3330 C.ar    1  UNL1        0.0919
     41 CL         47.0339    9.7469  -29.7370 Cl      1  UNL1       -0.0791
     42 C          45.7427   13.9588  -26.9265 C.3     1  UNL1        0.1382
     43 C          46.1989   15.0985  -27.7806 C.2     1  UNL1        0.3234
     44 O          45.3880   15.6669  -28.5613 O.2     1  UNL1       -0.2497
     45 O          47.5163   15.5535  -27.6625 O.3     1  UNL1       -0.4215
     46 C          47.8551   16.8545  -27.1867 C.3     1  UNL1        0.3207
     47 O          49.2160   16.8412  -26.8007 O.3     1  UNL1       -0.3070
     48 C          49.6750   18.1599  -26.5407 C.3     1  UNL1        0.2456
     49 C          48.7689   18.9240  -25.5250 C.3     1  UNL1        0.1781
     50 O          48.0983   19.9614  -26.1964 O.3     1  UNL1       -0.3790
     51 C          47.7400   17.9686  -24.8835 C.3     1  UNL1        0.1733
     52 O          48.4008   17.0429  -24.0569 O.3     1  UNL1       -0.3793
     53 C          46.9534   17.2083  -25.9715 C.3     1  UNL1        0.2106
     54 O          45.8704   17.9973  -26.3955 O.3     1  UNL1       -0.3766
     55 H          47.7404   20.5735  -25.5012 H       1  UNL1        0.2106
     56 H          48.6445   17.5232  -23.2227 H       1  UNL1        0.2105
     57 H          45.1633   17.3764  -26.7109 H       1  UNL1        0.2107
     58 C          51.0794   18.0706  -26.0192 C.2     1  UNL1        0.3439
     59 O          52.0502   18.0233  -26.8216 O.2     1  UNL1       -0.2475
     60 O          51.3140   18.0855  -24.6473 O.3     1  UNL1       -0.4785
     61 H          52.2574   18.0434  -24.2810 H       1  UNL1        0.2951
@<TRIPOS>BOND
     1    27    28    1
     2    28    29    1
     3    28    20    1
     4    20    21   ar
     5    21    30    1
     6    30    31    1
     7    31    32    1
     8    21    22   ar
     9    22    23   ar
    10    23    24   ar
    11    24    17    1
    12    17    18    2
    13    17    19    2
    14    17    15    1
    15    15     1    1
    16     1     2   ar
    17     2     3   ar
    18     3     7    1
    19     7     8    2
    20     7     9   am
    21     9    11    1
    22    11    12    1
    23    11    13    1
    24    11    14    1
    25     3     4   ar
    26     4     5   ar
    27     5     6   ar
    28     6    33    1
    29    33    34    1
    30    34    35   ar
    31    35    36   ar
    32    36    37    1
    33    36    38   ar
    34    38    42    1
    35    42    43    1
    36    43    44    2
    37    43    45    1
    38    45    46    1
    39    46    47    1
    40    47    48    1
    41    48    58    1
    42    58    59    2
    43    58    60    1
    44    48    49    1
    45    49    50    1
    46    49    51    1
    47    51    52    1
    48    51    53    1
    49    53    54    1
    50    38    39   ar
    51    39    40   ar
    52    40    41    1
    53    24    25   ar
    54    25    26    1
    55    25    20   ar
    56    32    30    1
    57     6     1   ar
    58    40    34   ar
    59    53    46    1
    60    15    16    1
    61     9    10    1
    62    60    61    1
    63    50    55    1
    64    52    56    1
    65    54    57    1
@<TRIPOS>MOLECULE
*****
 61 65 0 0 0
SMALL
GASTEIGER

@<TRIPOS>ATOM
      1 C          49.3395   13.4569  -20.1726 C.ar    1  UNL1        0.0993
      2 C          49.0659   12.8717  -18.9272 C.ar    1  UNL1        0.0235
      3 C          50.1002   12.5868  -18.0184 C.ar    1  UNL1        0.0548
      4 C          51.4244   12.8645  -18.3920 C.ar    1  UNL1        0.0077
      5 C          51.7078   13.4076  -19.6451 C.ar    1  UNL1        0.0390
      6 C          50.6692   13.7235  -20.5394 C.ar    1  UNL1        0.1598
      7 C          49.8106   12.0395  -16.6697 C.2     1  UNL1        0.2458
      8 O          50.0069   10.8128  -16.4552 O.2     1  UNL1       -0.2701
      9 N          49.3010   12.8840  -15.6178 N.am    1  UNL1       -0.3040
     10 H          48.9231   13.8181  -15.8940 H       1  UNL1        0.1496
     11 C          49.2415   12.5105  -14.1901 C.3     1  UNL1        0.0572
     12 C          50.6593   12.2529  -13.6425 C.3     1  UNL1        0.0196
     13 C          48.3604   11.2602  -14.0022 C.3     1  UNL1        0.0196
     14 C          48.6161   13.6742  -13.3930 C.3     1  UNL1        0.0196
     15 N          48.2664   13.8075  -21.0579 N.pl3   1  UNL1       -0.2120
     16 H          47.8933   14.7826  -21.0420 H       1  UNL1        0.1738
     17 S          47.2657   12.5936  -21.7897 S.O2    1  UNL1        0.0745
     18 O          47.9421   11.2593  -21.6409 O.2     1  UNL1       -0.1499
     19 O          45.9473   12.5178  -21.0738 O.2     1  UNL1       -0.1499
     20 C          47.1877   14.4335  -25.4975 C.ar    1  UNL1       -0.0146
     21 C          47.1151   13.2757  -26.3314 C.ar    1  UNL1       -0.0256
     22 C          46.9507   12.0124  -25.7509 C.ar    1  UNL1       -0.0032
     23 C          46.9794   11.8502  -24.3755 C.ar    1  UNL1        0.0207
     24 C          47.1041   12.9487  -23.5257 C.ar    1  UNL1        0.1353
     25 C          47.1699   14.2536  -24.0778 C.ar    1  UNL1        0.0722
     26 CL         47.1936   15.6444  -22.9903 Cl      1  UNL1       -0.0812
     27 C          45.9731   16.3103  -26.7262 C.3     1  UNL1        0.0047
     28 C          47.3068   15.8305  -26.1359 C.3     1  UNL1        0.0229
     29 C          48.4665   15.9506  -27.1386 C.3     1  UNL1        0.0047
     30 C          47.1175   13.3630  -27.8453 C.3     1  UNL1        0.0221
     31 C          45.7639   13.3036  -28.5513 C.3     1  UNL1        0.0047
     32 C          46.6644   12.0866  -28.5473 C.3     1  UNL1        0.0047
     33 O          50.9314   14.3005  -21.7930 O.3     1  UNL1       -0.4513
     34 C          50.8559   13.6075  -23.0066 C.ar    1  UNL1        0.1580
     35 C          50.8849   12.2099  -22.9890 C.ar    1  UNL1        0.0677
     36 C          50.8859   11.4859  -24.1845 C.ar    1  UNL1        0.1398
     37 F          50.9883   10.1334  -24.1370 F       1  UNL1       -0.2044
     38 C          50.8193   12.1591  -25.4178 C.ar    1  UNL1        0.0175
     39 C          50.7368   13.5610  -25.4311 C.ar    1  UNL1        0.0130
     40 C          50.7533   14.2857  -24.2356 C.ar    1  UNL1        0.0919
     41 CL         50.6408   16.0380  -24.3055 Cl      1  UNL1       -0.0791
     42 C          50.9822   11.4148  -26.7170 C.3     1  UNL1        0.1382
     43 C          52.4394   11.1819  -26.9594 C.2     1  UNL1        0.3234
     44 O          53.2853   12.0458  -26.6015 O.2     1  UNL1       -0.2497
     45 O          52.8494    9.9765  -27.5385 O.3     1  UNL1       -0.4215
     46 C          52.4723    9.5716  -28.8529 C.3     1  UNL1        0.3207
     47 O          51.3968    8.6595  -28.7407 O.3     1  UNL1       -0.3070
     48 C          50.8245    8.4019  -30.0149 C.3     1  UNL1        0.2456
     49 C          51.8832    7.9569  -31.0720 C.3     1  UNL1        0.1781
     50 O          52.0253    8.9706  -32.0359 O.3     1  UNL1       -0.3790
     51 C          53.2456    7.6829  -30.4000 C.3     1  UNL1        0.1733
     52 O          53.1502    6.5474  -29.5763 O.3     1  UNL1       -0.3793
     53 C          53.6843    8.8930  -29.5494 C.3     1  UNL1        0.2106
     54 O          54.3425    9.8227  -30.3729 O.3     1  UNL1       -0.3766
     55 H          52.4959    8.5688  -32.8125 H       1  UNL1        0.2106
     56 H          53.1580    5.7551  -30.1748 H       1  UNL1        0.2105
     57 H          54.9801   10.3208  -29.7983 H       1  UNL1        0.2107
     58 C          49.7770    7.3400  -29.8496 C.2     1  UNL1        0.3439
     59 O          49.3741    6.6878  -30.8500 O.2     1  UNL1       -0.2475
     60 O          49.2817    7.0430  -28.5831 O.3     1  UNL1       -0.4785
     61 H          48.5873    6.3170  -28.4538 H       1  UNL1        0.2951
@<TRIPOS>BOND
     1    27    28    1
     2    28    29    1
     3    28    20    1
     4    20    21   ar
     5    21    30    1
     6    30    31    1
     7    31    32    1
     8    21    22   ar
     9    22    23   ar
    10    23    24   ar
    11    24    17    1
    12    17    18    2
    13    17    19    2
    14    17    15    1
    15    15     1    1
    16     1     2   ar
    17     2     3   ar
    18     3     7    1
    19     7     8    2
    20     7     9   am
    21     9    11    1
    22    11    12    1
    23    11    13    1
    24    11    14    1
    25     3     4   ar
    26     4     5   ar
    27     5     6   ar
    28     6    33    1
    29    33    34    1
    30    34    35   ar
    31    35    36   ar
    32    36    37    1
    33    36    38   ar
    34    38    42    1
    35    42    43    1
    36    43    44    2
    37    43    45    1
    38    45    46    1
    39    46    47    1
    40    47    48    1
    41    48    58    1
    42    58    59    2
    43    58    60    1
    44    48    49    1
    45    49    50    1
    46    49    51    1
    47    51    52    1
    48    51    53    1
    49    53    54    1
    50    38    39   ar
    51    39    40   ar
    52    40    41    1
    53    24    25   ar
    54    25    26    1
    55    25    20   ar
    56    32    30    1
    57     6     1   ar
    58    40    34   ar
    59    53    46    1
    60    15    16    1
    61     9    10    1
    62    60    61    1
    63    50    55    1
    64    52    56    1
    65    54    57    1
@<TRIPOS>MOLECULE
*****
 61 65 0 0 0
SMALL
GASTEIGER

@<TRIPOS>ATOM
      1 C          50.5697   11.1324  -25.1557 C.ar    1  UNL1        0.0993
      2 C          50.9225   10.7951  -26.4711 C.ar    1  UNL1        0.0235
      3 C          52.2691   10.7641  -26.8739 C.ar    1  UNL1        0.0548
      4 C          53.2614   11.1134  -25.9446 C.ar    1  UNL1        0.0077
      5 C          52.9154   11.4902  -24.6470 C.ar    1  UNL1        0.0390
      6 C          51.5703   11.4878  -24.2359 C.ar    1  UNL1        0.1598
      7 C          52.6538   10.3338  -28.2411 C.2     1  UNL1        0.2458
      8 O          52.7664   11.2056  -29.1450 O.2     1  UNL1       -0.2701
      9 N          52.8850    8.9436  -28.5461 N.am    1  UNL1       -0.3040
     10 H          52.5478    8.2385  -27.8528 H       1  UNL1        0.1496
     11 C          53.5281    8.4457  -29.7790 C.3     1  UNL1        0.0572
     12 C          54.6338    9.4167  -30.2380 C.3     1  UNL1        0.0196
     13 C          52.4782    8.2660  -30.8928 C.3     1  UNL1        0.0196
     14 C          54.1738    7.0747  -29.4893 C.3     1  UNL1        0.0196
     15 N          49.1967   11.0888  -24.7419 N.pl3   1  UNL1       -0.2120
     16 H          48.8687   10.2901  -24.1546 H       1  UNL1        0.1738
     17 S          47.9790   12.0229  -25.5513 S.O2    1  UNL1        0.0745
     18 O          47.8602   11.5334  -26.9677 O.2     1  UNL1       -0.1499
     19 O          46.6486   11.8158  -24.8852 O.2     1  UNL1       -0.1499
     20 C          48.2026   16.1335  -25.1125 C.ar    1  UNL1       -0.0146
     21 C          49.5782   16.3295  -25.4446 C.ar    1  UNL1       -0.0256
     22 C          50.3371   15.2528  -25.9190 C.ar    1  UNL1       -0.0032
     23 C          49.8116   13.9717  -25.9570 C.ar    1  UNL1        0.0207
     24 C          48.4891   13.7271  -25.5888 C.ar    1  UNL1        0.1353
     25 C          47.6613   14.8116  -25.2008 C.ar    1  UNL1        0.0722
     26 CL         45.9544   14.5097  -24.8650 Cl      1  UNL1       -0.0812
     27 C          46.7934   17.1260  -23.2320 C.3     1  UNL1        0.0047
     28 C          47.3491   17.3293  -24.6488 C.3     1  UNL1        0.0229
     29 C          46.2558   17.7296  -25.6534 C.3     1  UNL1        0.0047
     30 C          50.2410   17.6923  -25.3918 C.3     1  UNL1        0.0221
     31 C          50.1021   18.5857  -26.6234 C.3     1  UNL1        0.0047
     32 C          51.4055   17.8609  -26.3628 C.3     1  UNL1        0.0047
     33 O          51.2040   11.8331  -22.9245 O.3     1  UNL1       -0.4513
     34 C          49.8869   11.8287  -22.4512 C.ar    1  UNL1        0.1580
     35 C          49.1799   13.0341  -22.4104 C.ar    1  UNL1        0.0677
     36 C          47.8895   13.0813  -21.8757 C.ar    1  UNL1        0.1398
     37 F          47.2570   14.2784  -21.7826 F       1  UNL1       -0.2044
     38 C          47.2756   11.9053  -21.4078 C.ar    1  UNL1        0.0175
     39 C          47.9678   10.6867  -21.4986 C.ar    1  UNL1        0.0130
     40 C          49.2652   10.6427  -22.0176 C.ar    1  UNL1        0.0919
     41 CL         50.0860    9.0920  -22.1164 Cl      1  UNL1       -0.0791
     42 C          45.9569   11.9554  -20.6818 C.3     1  UNL1        0.1382
     43 C          46.2179   12.1388  -19.2208 C.2     1  UNL1        0.3234
     44 O          45.3327   11.8304  -18.3773 O.2     1  UNL1       -0.2497
     45 O          47.4693   12.6060  -18.8057 O.3     1  UNL1       -0.4215
     46 C          48.1459   12.1113  -17.6518 C.3     1  UNL1        0.3207
     47 O          48.1643   13.1381  -16.6788 O.3     1  UNL1       -0.3070
     48 C          48.6128   12.6343  -15.4287 C.3     1  UNL1        0.2456
     49 C          49.9764   11.8826  -15.5362 C.3     1  UNL1        0.1781
     50 O          49.7659   10.5119  -15.3045 O.3     1  UNL1       -0.3790
     51 C          50.6036   12.0841  -16.9323 C.3     1  UNL1        0.1733
     52 O          50.9892   13.4268  -17.0916 O.3     1  UNL1       -0.3793
     53 C          49.5961   11.7094  -18.0391 C.3     1  UNL1        0.2106
     54 O          49.6604   10.3251  -18.2735 O.3     1  UNL1       -0.3766
     55 H          50.6553   10.1074  -15.1276 H       1  UNL1        0.2106
     56 H          51.8267   13.5502  -16.5726 H       1  UNL1        0.2105
     57 H          49.3911   10.1764  -19.2170 H       1  UNL1        0.2107
     58 C          48.7289   13.7879  -14.4758 C.2     1  UNL1        0.3439
     59 O          49.8633   14.1727  -14.0838 O.2     1  UNL1       -0.2475
     60 O          47.5855   14.4633  -14.0589 O.3     1  UNL1       -0.4785
     61 H          47.6497   15.2545  -13.4298 H       1  UNL1        0.2951
@<TRIPOS>BOND
     1    27    28    1
     2    28    29    1
     3    28    20    1
     4    20    21   ar
     5    21    30    1
     6    30    31    1
     7    31    32    1
     8    21    22   ar
     9    22    23   ar
    10    23    24   ar
    11    24    17    1
    12    17    18    2
    13    17    19    2
    14    17    15    1
    15    15     1    1
    16     1     2   ar
    17     2     3   ar
    18     3     7    1
    19     7     8    2
    20     7     9   am
    21     9    11    1
    22    11    12    1
    23    11    13    1
    24    11    14    1
    25     3     4   ar
    26     4     5   ar
    27     5     6   ar
    28     6    33    1
    29    33    34    1
    30    34    35   ar
    31    35    36   ar
    32    36    37    1
    33    36    38   ar
    34    38    42    1
    35    42    43    1
    36    43    44    2
    37    43    45    1
    38    45    46    1
    39    46    47    1
    40    47    48    1
    41    48    58    1
    42    58    59    2
    43    58    60    1
    44    48    49    1
    45    49    50    1
    46    49    51    1
    47    51    52    1
    48    51    53    1
    49    53    54    1
    50    38    39   ar
    51    39    40   ar
    52    40    41    1
    53    24    25   ar
    54    25    26    1
    55    25    20   ar
    56    32    30    1
    57     6     1   ar
    58    40    34   ar
    59    53    46    1
    60    15    16    1
    61     9    10    1
    62    60    61    1
    63    50    55    1
    64    52    56    1
    65    54    57    1
