@<TRIPOS>MOLECULE
*****
 49 54 0 0 0
SMALL
GASTEIGER

@<TRIPOS>ATOM
      1 C         -61.9175  -46.2822  -26.1364 C.2     1  UNL1        0.2483
      2 O         -60.9027  -47.0222  -26.2554 O.2     1  UNL1       -0.2701
      3 N         -62.9986  -46.3984  -27.0747 N.am    1  UNL1       -0.2945
      4 H         -63.6828  -45.6141  -27.1313 H       1  UNL1        0.1501
      5 C         -62.0506  -43.4149  -22.9309 C.ar    1  UNL1        0.0502
      6 C         -61.8497  -44.7776  -22.6664 C.ar    1  UNL1        0.0148
      7 C         -61.8156  -45.7037  -23.7121 C.ar    1  UNL1        0.0080
      8 C         -61.9662  -45.2836  -25.0443 C.ar    1  UNL1        0.0808
      9 C         -62.1798  -43.9160  -25.3091 C.ar    1  UNL1        0.1457
     10 F         -62.3977  -43.4718  -26.5731 F       1  UNL1       -0.2040
     11 C         -62.2151  -42.9931  -24.2593 C.ar    1  UNL1        0.0443
     12 N         -62.8724  -40.1168  -20.5415 N.pl3   1  UNL1       -0.3040
     13 C         -63.8030  -41.2569  -20.6123 C.3     1  UNL1        0.1122
     14 C         -63.0525  -42.5800  -20.7686 C.3     1  UNL1        0.1122
     15 N         -62.0738  -42.4588  -21.8549 N.pl3   1  UNL1       -0.3040
     16 C         -61.1695  -41.3000  -21.8966 C.3     1  UNL1        0.1122
     17 C         -61.4284  -40.3302  -20.7348 C.3     1  UNL1        0.1122
     18 C         -64.3240  -36.3083  -19.2409 C.ar    1  UNL1       -0.0118
     19 C         -64.9743  -37.5000  -18.8653 C.ar    1  UNL1       -0.0022
     20 C         -64.5005  -38.7418  -19.2903 C.ar    1  UNL1        0.0142
     21 C         -63.3638  -38.8305  -20.1064 C.ar    1  UNL1        0.0488
     22 C         -62.7062  -37.6482  -20.4827 C.ar    1  UNL1        0.0256
     23 C         -63.1729  -36.3972  -20.0609 C.ar    1  UNL1        0.0549
     24 CL        -62.2698  -34.9786  -20.5876 Cl      1  UNL1       -0.0825
     25 C         -66.3234  -34.7713  -19.2068 C.3     1  UNL1        0.0047
     26 C         -64.8700  -34.9697  -18.7582 C.3     1  UNL1        0.0232
     27 C         -64.7408  -34.8371  -17.2356 C.3     1  UNL1        0.0047
     28 C         -63.0961  -47.5160  -28.0225 C.3     1  UNL1        0.1535
     29 C         -63.3973  -48.8097  -27.3034 C.2     1  UNL1        0.2443
     30 O         -63.7496  -49.8260  -27.9629 O.2     1  UNL1       -0.2730
     31 N         -63.2758  -48.8736  -25.8730 N.am    1  UNL1       -0.2825
     32 H         -63.1937  -47.9702  -25.3538 H       1  UNL1        0.1549
     33 C         -63.3839  -50.0825  -25.1008 C.ar    1  UNL1        0.0535
     34 C         -62.4939  -50.3010  -24.0400 C.ar    1  UNL1        0.0353
     35 C         -62.5754  -51.4826  -23.2995 C.ar    1  UNL1        0.1002
     36 N         -63.5030  -52.4237  -23.6172 N.ar    1  UNL1       -0.2422
     37 C         -64.3668  -52.2502  -24.6520 C.ar    1  UNL1        0.1002
     38 C         -64.3201  -51.0823  -25.4176 C.ar    1  UNL1        0.0353
     39 C         -64.1396  -47.2337  -29.1259 C.3     1  UNL1        0.0569
     40 C         -64.3321  -45.7659  -29.4063 C.ar    1  UNL1       -0.0017
     41 C         -65.5093  -45.0421  -29.2363 C.ar    1  UNL1        0.0681
     42 N         -65.3156  -43.7411  -29.5484 N.ar    1  UNL1       -0.3523
     43 C         -64.0282  -43.6358  -29.9192 C.ar    1  UNL1        0.0563
     44 C         -63.3621  -42.4832  -30.3336 C.ar    1  UNL1        0.0170
     45 C         -62.0059  -42.5985  -30.6880 C.ar    1  UNL1        0.0015
     46 C         -61.3545  -43.8499  -30.6265 C.ar    1  UNL1        0.0001
     47 C         -62.0521  -44.9971  -30.2071 C.ar    1  UNL1        0.0012
     48 C         -63.3943  -44.8509  -29.8507 C.ar    1  UNL1        0.0131
     49 H         -66.0261  -42.9769  -29.5099 H       1  UNL1        0.1660
@<TRIPOS>BOND
     1    25    26    1
     2    26    27    1
     3    26    18    1
     4    18    19   ar
     5    19    20   ar
     6    20    21   ar
     7    21    12    1
     8    12    13    1
     9    13    14    1
    10    14    15    1
    11    15     5    1
    12     5     6   ar
    13     6     7   ar
    14     7     8   ar
    15     8     1    1
    16     1     2    2
    17     1     3   am
    18     3    28    1
    19    28    39    1
    20    39    40    1
    21    40    41   ar
    22    41    42   ar
    23    42    43   ar
    24    43    44   ar
    25    44    45   ar
    26    45    46   ar
    27    46    47   ar
    28    47    48   ar
    29    28    29    1
    30    29    30    2
    31    29    31   am
    32    31    33    1
    33    33    34   ar
    34    34    35   ar
    35    35    36   ar
    36    36    37   ar
    37    37    38   ar
    38     8     9   ar
    39     9    10    1
    40     9    11   ar
    41    15    16    1
    42    16    17    1
    43    21    22   ar
    44    22    23   ar
    45    23    24    1
    46    23    18   ar
    47    17    12    1
    48    11     5   ar
    49    48    40   ar
    50    38    33   ar
    51    48    43   ar
    52     3     4    1
    53    42    49    1
    54    31    32    1
@<TRIPOS>MOLECULE
*****
 49 54 0 0 0
SMALL
GASTEIGER

@<TRIPOS>ATOM
      1 C         -61.4026  -45.2765  -24.8840 C.2     1  UNL1        0.2483
      2 O         -60.5962  -44.7066  -24.0987 O.2     1  UNL1       -0.2701
      3 N         -62.0221  -44.5243  -25.9390 N.am    1  UNL1       -0.2945
      4 H         -62.8722  -44.9246  -26.3904 H       1  UNL1        0.1501
      5 C         -62.3675  -49.4334  -24.3331 C.ar    1  UNL1        0.0502
      6 C         -63.3184  -48.5380  -24.8441 C.ar    1  UNL1        0.0148
      7 C         -63.0001  -47.1880  -25.0128 C.ar    1  UNL1        0.0080
      8 C         -61.7196  -46.7095  -24.6882 C.ar    1  UNL1        0.0808
      9 C         -60.7679  -47.6068  -24.1637 C.ar    1  UNL1        0.1457
     10 F         -59.5406  -47.1785  -23.7728 F       1  UNL1       -0.2040
     11 C         -61.0917  -48.9565  -23.9948 C.ar    1  UNL1        0.0443
     12 N         -64.3020  -53.0035  -23.4532 N.pl3   1  UNL1       -0.3040
     13 C         -64.6084  -52.2545  -24.6844 C.3     1  UNL1        0.1122
     14 C         -63.3618  -51.5682  -25.2441 C.3     1  UNL1        0.1122
     15 N         -62.6911  -50.8266  -24.1704 N.pl3   1  UNL1       -0.3040
     16 C         -62.4305  -51.4846  -22.8815 C.3     1  UNL1        0.1122
     17 C         -62.9572  -52.9266  -22.8585 C.3     1  UNL1        0.1122
     18 C         -67.1648  -55.7911  -21.9246 C.ar    1  UNL1       -0.0118
     19 C         -65.7882  -55.9532  -21.6739 C.ar    1  UNL1       -0.0022
     20 C         -64.8550  -55.0438  -22.1732 C.ar    1  UNL1        0.0142
     21 C         -65.2689  -53.9460  -22.9411 C.ar    1  UNL1        0.0488
     22 C         -66.6395  -53.7737  -23.1929 C.ar    1  UNL1        0.0256
     23 C         -67.5842  -54.6799  -22.6956 C.ar    1  UNL1        0.0549
     24 CL        -69.2779  -54.3663  -23.0673 Cl      1  UNL1       -0.0825
     25 C         -68.8491  -56.2624  -20.1073 C.3     1  UNL1        0.0047
     26 C         -68.1554  -56.8045  -21.3634 C.3     1  UNL1        0.0232
     27 C         -69.1828  -57.2184  -22.4245 C.3     1  UNL1        0.0047
     28 C         -61.5699  -43.1772  -26.3100 C.3     1  UNL1        0.1535
     29 C         -60.8910  -43.1875  -27.6591 C.2     1  UNL1        0.2443
     30 O         -59.8240  -42.5357  -27.8288 O.2     1  UNL1       -0.2730
     31 N         -61.4640  -43.9438  -28.7383 N.am    1  UNL1       -0.2825
     32 H         -62.4443  -44.2871  -28.6210 H       1  UNL1        0.1549
     33 C         -60.8287  -44.1534  -30.0117 C.ar    1  UNL1        0.0535
     34 C         -59.6331  -44.8829  -30.0703 C.ar    1  UNL1        0.0353
     35 C         -58.9960  -45.0713  -31.2991 C.ar    1  UNL1        0.1002
     36 N         -59.5246  -44.5351  -32.4304 N.ar    1  UNL1       -0.2422
     37 C         -60.6714  -43.8063  -32.4037 C.ar    1  UNL1        0.1002
     38 C         -61.3412  -43.5949  -31.1958 C.ar    1  UNL1        0.0353
     39 C         -62.7323  -42.1603  -26.2769 C.3     1  UNL1        0.0569
     40 C         -63.1857  -41.8145  -24.8823 C.ar    1  UNL1       -0.0017
     41 C         -62.5010  -42.0894  -23.7015 C.ar    1  UNL1        0.0681
     42 N         -63.1791  -41.6062  -22.6364 N.ar    1  UNL1       -0.3523
     43 C         -64.2889  -41.0326  -23.1318 C.ar    1  UNL1        0.0563
     44 C         -65.3023  -40.3990  -22.4139 C.ar    1  UNL1        0.0170
     45 C         -66.3880  -39.8705  -23.1352 C.ar    1  UNL1        0.0015
     46 C         -66.4388  -39.9906  -24.5412 C.ar    1  UNL1        0.0001
     47 C         -65.4033  -40.6374  -25.2396 C.ar    1  UNL1        0.0012
     48 C         -64.3327  -41.1425  -24.4989 C.ar    1  UNL1        0.0131
     49 H         -62.8952  -41.6702  -21.6336 H       1  UNL1        0.1660
@<TRIPOS>BOND
     1    25    26    1
     2    26    27    1
     3    26    18    1
     4    18    19   ar
     5    19    20   ar
     6    20    21   ar
     7    21    12    1
     8    12    13    1
     9    13    14    1
    10    14    15    1
    11    15     5    1
    12     5     6   ar
    13     6     7   ar
    14     7     8   ar
    15     8     1    1
    16     1     2    2
    17     1     3   am
    18     3    28    1
    19    28    39    1
    20    39    40    1
    21    40    41   ar
    22    41    42   ar
    23    42    43   ar
    24    43    44   ar
    25    44    45   ar
    26    45    46   ar
    27    46    47   ar
    28    47    48   ar
    29    28    29    1
    30    29    30    2
    31    29    31   am
    32    31    33    1
    33    33    34   ar
    34    34    35   ar
    35    35    36   ar
    36    36    37   ar
    37    37    38   ar
    38     8     9   ar
    39     9    10    1
    40     9    11   ar
    41    15    16    1
    42    16    17    1
    43    21    22   ar
    44    22    23   ar
    45    23    24    1
    46    23    18   ar
    47    17    12    1
    48    11     5   ar
    49    48    40   ar
    50    38    33   ar
    51    48    43   ar
    52     3     4    1
    53    42    49    1
    54    31    32    1
@<TRIPOS>MOLECULE
*****
 49 54 0 0 0
SMALL
GASTEIGER

@<TRIPOS>ATOM
      1 C         -61.0547  -50.3110  -23.5181 C.2     1  UNL1        0.2483
      2 O         -60.0009  -50.6087  -24.1447 O.2     1  UNL1       -0.2701
      3 N         -61.1650  -49.0308  -22.8766 N.am    1  UNL1       -0.2945
      4 H         -61.9020  -48.9107  -22.1492 H       1  UNL1        0.1501
      5 C         -64.2210  -53.2107  -23.2351 C.ar    1  UNL1        0.0502
      6 C         -62.9948  -53.4223  -22.5879 C.ar    1  UNL1        0.0148
      7 C         -61.9686  -52.4796  -22.6910 C.ar    1  UNL1        0.0080
      8 C         -62.1535  -51.2995  -23.4307 C.ar    1  UNL1        0.0808
      9 C         -63.3814  -51.0925  -24.0906 C.ar    1  UNL1        0.1457
     10 F         -63.5829  -50.0006  -24.8713 F       1  UNL1       -0.2040
     11 C         -64.4048  -52.0395  -23.9861 C.ar    1  UNL1        0.0443
     12 N         -67.7695  -55.1409  -22.2631 N.pl3   1  UNL1       -0.3040
     13 C         -67.7173  -54.1423  -23.3451 C.3     1  UNL1        0.1122
     14 C         -66.3829  -54.1967  -24.0898 C.3     1  UNL1        0.1122
     15 N         -65.2828  -54.1759  -23.1193 N.pl3   1  UNL1       -0.3040
     16 C         -65.3110  -55.0859  -21.9645 C.3     1  UNL1        0.1122
     17 C         -66.5802  -55.9497  -21.9478 C.3     1  UNL1        0.1122
     18 C         -71.5281  -56.0430  -20.4293 C.ar    1  UNL1       -0.0118
     19 C         -71.4666  -55.3861  -21.6739 C.ar    1  UNL1       -0.0022
     20 C         -70.2402  -55.0919  -22.2711 C.ar    1  UNL1        0.0142
     21 C         -69.0375  -55.4423  -21.6412 C.ar    1  UNL1        0.0488
     22 C         -69.0887  -56.1011  -20.4022 C.ar    1  UNL1        0.0256
     23 C         -70.3141  -56.4019  -19.7949 C.ar    1  UNL1        0.0549
     24 CL        -70.2633  -57.2344  -18.2425 Cl      1  UNL1       -0.0825
     25 C         -73.3137  -55.2352  -18.8417 C.3     1  UNL1        0.0047
     26 C         -72.8854  -56.3480  -19.8067 C.3     1  UNL1        0.0232
     27 C         -73.9493  -56.5794  -20.8872 C.3     1  UNL1        0.0047
     28 C         -60.2088  -47.9445  -23.1267 C.3     1  UNL1        0.1535
     29 C         -60.6321  -47.1152  -24.3160 C.2     1  UNL1        0.2443
     30 O         -59.7634  -46.6992  -25.1311 O.2     1  UNL1       -0.2730
     31 N         -62.0225  -46.8102  -24.5122 N.am    1  UNL1       -0.2825
     32 H         -62.6735  -46.9860  -23.7134 H       1  UNL1        0.1549
     33 C         -62.5569  -46.1670  -25.6826 C.ar    1  UNL1        0.0535
     34 C         -62.4625  -44.7736  -25.8033 C.ar    1  UNL1        0.0353
     35 C         -62.9996  -44.1374  -26.9249 C.ar    1  UNL1        0.1002
     36 N         -63.6260  -44.8649  -27.8867 N.ar    1  UNL1       -0.2422
     37 C         -63.7513  -46.2147  -27.7892 C.ar    1  UNL1        0.1002
     38 C         -63.2271  -46.8907  -26.6845 C.ar    1  UNL1        0.0353
     39 C         -60.0112  -47.0639  -21.8731 C.3     1  UNL1        0.0569
     40 C         -59.7145  -45.6222  -22.1950 C.ar    1  UNL1       -0.0017
     41 C         -58.4710  -45.0913  -22.5275 C.ar    1  UNL1        0.0681
     42 N         -58.5746  -43.7693  -22.7908 N.ar    1  UNL1       -0.3523
     43 C         -59.8711  -43.4578  -22.6232 C.ar    1  UNL1        0.0563
     44 C         -60.4640  -42.2056  -22.7798 C.ar    1  UNL1        0.0170
     45 C         -61.8465  -42.0981  -22.5443 C.ar    1  UNL1        0.0015
     46 C         -62.5960  -43.2303  -22.1565 C.ar    1  UNL1        0.0001
     47 C         -61.9711  -44.4811  -22.0034 C.ar    1  UNL1        0.0012
     48 C         -60.5998  -44.5606  -22.2546 C.ar    1  UNL1        0.0131
     49 H         -57.8008  -43.1246  -23.0661 H       1  UNL1        0.1660
@<TRIPOS>BOND
     1    25    26    1
     2    26    27    1
     3    26    18    1
     4    18    19   ar
     5    19    20   ar
     6    20    21   ar
     7    21    12    1
     8    12    13    1
     9    13    14    1
    10    14    15    1
    11    15     5    1
    12     5     6   ar
    13     6     7   ar
    14     7     8   ar
    15     8     1    1
    16     1     2    2
    17     1     3   am
    18     3    28    1
    19    28    39    1
    20    39    40    1
    21    40    41   ar
    22    41    42   ar
    23    42    43   ar
    24    43    44   ar
    25    44    45   ar
    26    45    46   ar
    27    46    47   ar
    28    47    48   ar
    29    28    29    1
    30    29    30    2
    31    29    31   am
    32    31    33    1
    33    33    34   ar
    34    34    35   ar
    35    35    36   ar
    36    36    37   ar
    37    37    38   ar
    38     8     9   ar
    39     9    10    1
    40     9    11   ar
    41    15    16    1
    42    16    17    1
    43    21    22   ar
    44    22    23   ar
    45    23    24    1
    46    23    18   ar
    47    17    12    1
    48    11     5   ar
    49    48    40   ar
    50    38    33   ar
    51    48    43   ar
    52     3     4    1
    53    42    49    1
    54    31    32    1
@<TRIPOS>MOLECULE
*****
 49 54 0 0 0
SMALL
GASTEIGER

@<TRIPOS>ATOM
      1 C         -61.4015  -47.3104  -25.1772 C.2     1  UNL1        0.2483
      2 O         -60.6290  -46.7306  -24.3656 O.2     1  UNL1       -0.2701
      3 N         -61.7376  -46.6739  -26.4201 N.am    1  UNL1       -0.2945
      4 H         -62.5711  -47.0244  -26.9387 H       1  UNL1        0.1501
      5 C         -63.1023  -51.1324  -24.1705 C.ar    1  UNL1        0.0502
      6 C         -63.8392  -50.1898  -24.9024 C.ar    1  UNL1        0.0148
      7 C         -63.2828  -48.9478  -25.2187 C.ar    1  UNL1        0.0080
      8 C         -61.9730  -48.6294  -24.8227 C.ar    1  UNL1        0.0808
      9 C         -61.2368  -49.5719  -24.0771 C.ar    1  UNL1        0.1457
     10 F         -59.9935  -49.2841  -23.6148 F       1  UNL1       -0.2040
     11 C         -61.7984  -50.8128  -23.7613 C.ar    1  UNL1        0.0443
     12 N         -65.4932  -54.1732  -22.6543 N.pl3   1  UNL1       -0.3040
     13 C         -65.9172  -53.3816  -23.8223 C.3     1  UNL1        0.1122
     14 C         -64.7237  -52.9952  -24.6967 C.3     1  UNL1        0.1122
     15 N         -63.6706  -52.4168  -23.8547 N.pl3   1  UNL1       -0.3040
     16 C         -63.2564  -53.1092  -22.6253 C.3     1  UNL1        0.1122
     17 C         -64.0611  -54.3963  -22.3949 C.3     1  UNL1        0.1122
     18 C         -68.4353  -56.2437  -20.3390 C.ar    1  UNL1       -0.0118
     19 C         -67.2576  -56.8903  -20.7622 C.ar    1  UNL1       -0.0022
     20 C         -66.2987  -56.2144  -21.5177 C.ar    1  UNL1        0.0142
     21 C         -66.4889  -54.8722  -21.8762 C.ar    1  UNL1        0.0488
     22 C         -67.6579  -54.2179  -21.4554 C.ar    1  UNL1        0.0256
     23 C         -68.6259  -54.8867  -20.6961 C.ar    1  UNL1        0.0549
     24 CL        -70.0525  -53.9697  -20.2176 Cl      1  UNL1       -0.0825
     25 C         -69.7464  -56.3046  -18.1852 C.3     1  UNL1        0.0047
     26 C         -69.4610  -57.0135  -19.5153 C.3     1  UNL1        0.0232
     27 C         -70.7542  -57.2344  -20.3100 C.3     1  UNL1        0.0047
     28 C         -61.0239  -45.4878  -26.9105 C.3     1  UNL1        0.1535
     29 C         -61.1059  -45.3917  -28.4156 C.2     1  UNL1        0.2443
     30 O         -62.1097  -45.8598  -29.0198 O.2     1  UNL1       -0.2730
     31 N         -60.0408  -44.7632  -29.1475 N.am    1  UNL1       -0.2825
     32 H         -59.1444  -44.5858  -28.6401 H       1  UNL1        0.1549
     33 C         -60.0810  -44.4764  -30.5566 C.ar    1  UNL1        0.0535
     34 C         -58.9758  -44.8024  -31.3549 C.ar    1  UNL1        0.0353
     35 C         -58.9957  -44.5061  -32.7199 C.ar    1  UNL1        0.1002
     36 N         -60.0754  -43.8890  -33.2679 N.ar    1  UNL1       -0.2422
     37 C         -61.1538  -43.5423  -32.5170 C.ar    1  UNL1        0.1002
     38 C         -61.1755  -43.8216  -31.1481 C.ar    1  UNL1        0.0353
     39 C         -61.5422  -44.1969  -26.2389 C.3     1  UNL1        0.0569
     40 C         -61.4663  -42.9856  -27.1318 C.ar    1  UNL1       -0.0017
     41 C         -60.3702  -42.1404  -27.2824 C.ar    1  UNL1        0.0681
     42 N         -60.6361  -41.1759  -28.1917 N.ar    1  UNL1       -0.3523
     43 C         -61.8921  -41.3999  -28.6141 C.ar    1  UNL1        0.0563
     44 C         -62.6097  -40.6607  -29.5535 C.ar    1  UNL1        0.0170
     45 C         -63.9244  -41.0666  -29.8451 C.ar    1  UNL1        0.0015
     46 C         -64.4881  -42.1861  -29.1947 C.ar    1  UNL1        0.0001
     47 C         -63.7418  -42.9120  -28.2490 C.ar    1  UNL1        0.0012
     48 C         -62.4356  -42.4931  -27.9875 C.ar    1  UNL1        0.0131
     49 H         -59.9935  -40.4123  -28.4986 H       1  UNL1        0.1660
@<TRIPOS>BOND
     1    25    26    1
     2    26    27    1
     3    26    18    1
     4    18    19   ar
     5    19    20   ar
     6    20    21   ar
     7    21    12    1
     8    12    13    1
     9    13    14    1
    10    14    15    1
    11    15     5    1
    12     5     6   ar
    13     6     7   ar
    14     7     8   ar
    15     8     1    1
    16     1     2    2
    17     1     3   am
    18     3    28    1
    19    28    39    1
    20    39    40    1
    21    40    41   ar
    22    41    42   ar
    23    42    43   ar
    24    43    44   ar
    25    44    45   ar
    26    45    46   ar
    27    46    47   ar
    28    47    48   ar
    29    28    29    1
    30    29    30    2
    31    29    31   am
    32    31    33    1
    33    33    34   ar
    34    34    35   ar
    35    35    36   ar
    36    36    37   ar
    37    37    38   ar
    38     8     9   ar
    39     9    10    1
    40     9    11   ar
    41    15    16    1
    42    16    17    1
    43    21    22   ar
    44    22    23   ar
    45    23    24    1
    46    23    18   ar
    47    17    12    1
    48    11     5   ar
    49    48    40   ar
    50    38    33   ar
    51    48    43   ar
    52     3     4    1
    53    42    49    1
    54    31    32    1
@<TRIPOS>MOLECULE
*****
 49 54 0 0 0
SMALL
GASTEIGER

@<TRIPOS>ATOM
      1 C         -62.3338  -45.5844  -26.4176 C.2     1  UNL1        0.2483
      2 O         -61.2310  -45.9659  -26.8970 O.2     1  UNL1       -0.2701
      3 N         -63.5605  -45.9677  -27.0587 N.am    1  UNL1       -0.2945
      4 H         -64.4228  -45.4308  -26.8244 H       1  UNL1        0.1501
      5 C         -62.3712  -43.0403  -22.9478 C.ar    1  UNL1        0.0502
      6 C         -62.4352  -42.4943  -24.2381 C.ar    1  UNL1        0.0148
      7 C         -62.4147  -43.3266  -25.3603 C.ar    1  UNL1        0.0080
      8 C         -62.3452  -44.7222  -25.2140 C.ar    1  UNL1        0.0808
      9 C         -62.2690  -45.2701  -23.9179 C.ar    1  UNL1        0.1457
     10 F         -62.1329  -46.6072  -23.7283 F       1  UNL1       -0.2040
     11 C         -62.2880  -44.4331  -22.7979 C.ar    1  UNL1        0.0443
     12 N         -63.1154  -39.9049  -20.3252 N.pl3   1  UNL1       -0.3040
     13 C         -64.1263  -40.9481  -20.5715 C.3     1  UNL1        0.1122
     14 C         -63.4750  -42.3133  -20.7962 C.3     1  UNL1        0.1122
     15 N         -62.4045  -42.1839  -21.7911 N.pl3   1  UNL1       -0.3040
     16 C         -61.4091  -41.1098  -21.6567 C.3     1  UNL1        0.1122
     17 C         -61.6825  -40.2266  -20.4310 C.3     1  UNL1        0.1122
     18 C         -64.3533  -36.1113  -18.7825 C.ar    1  UNL1       -0.0118
     19 C         -65.0021  -37.2998  -18.3940 C.ar    1  UNL1       -0.0022
     20 C         -64.5980  -38.5367  -18.8980 C.ar    1  UNL1        0.0142
     21 C         -63.5350  -38.6234  -19.8083 C.ar    1  UNL1        0.0488
     22 C         -62.8793  -37.4445  -20.1983 C.ar    1  UNL1        0.0256
     23 C         -63.2763  -36.1985  -19.6977 C.ar    1  UNL1        0.0549
     24 CL        -62.3821  -34.7840  -20.2501 Cl      1  UNL1       -0.0825
     25 C         -66.1700  -34.3620  -18.8142 C.3     1  UNL1        0.0047
     26 C         -64.8221  -34.7780  -18.2118 C.3     1  UNL1        0.0232
     27 C         -64.8952  -34.8278  -16.6805 C.3     1  UNL1        0.0047
     28 C         -63.6089  -46.9973  -28.1049 C.3     1  UNL1        0.1535
     29 C         -63.2191  -46.4232  -29.4465 C.2     1  UNL1        0.2443
     30 O         -63.8050  -46.8187  -30.4915 O.2     1  UNL1       -0.2730
     31 N         -62.1862  -45.4270  -29.5211 N.am    1  UNL1       -0.2825
     32 H         -61.5874  -45.2870  -28.6759 H       1  UNL1        0.1549
     33 C         -61.8415  -44.7006  -30.7139 C.ar    1  UNL1        0.0535
     34 C         -60.5109  -44.6979  -31.1553 C.ar    1  UNL1        0.0353
     35 C         -60.1619  -43.9759  -32.2990 C.ar    1  UNL1        0.1002
     36 N         -61.1054  -43.2654  -32.9711 N.ar    1  UNL1       -0.2422
     37 C         -62.3996  -43.2320  -32.5574 C.ar    1  UNL1        0.1002
     38 C         -62.7915  -43.9411  -31.4190 C.ar    1  UNL1        0.0353
     39 C         -62.7312  -48.2155  -27.7419 C.3     1  UNL1        0.0569
     40 C         -63.1060  -48.8535  -26.4294 C.ar    1  UNL1       -0.0017
     41 C         -64.3763  -49.2838  -26.0555 C.ar    1  UNL1        0.0681
     42 N         -64.3450  -49.8421  -24.8247 N.ar    1  UNL1       -0.3523
     43 C         -63.0677  -49.7646  -24.4142 C.ar    1  UNL1        0.0563
     44 C         -62.5441  -50.2087  -23.2007 C.ar    1  UNL1        0.0170
     45 C         -61.1698  -50.0197  -22.9685 C.ar    1  UNL1        0.0015
     46 C         -60.3598  -49.3930  -23.9408 C.ar    1  UNL1        0.0001
     47 C         -60.9155  -48.9524  -25.1554 C.ar    1  UNL1        0.0012
     48 C         -62.2801  -49.1632  -25.3635 C.ar    1  UNL1        0.0131
     49 H         -65.1527  -50.2480  -24.3020 H       1  UNL1        0.1660
@<TRIPOS>BOND
     1    25    26    1
     2    26    27    1
     3    26    18    1
     4    18    19   ar
     5    19    20   ar
     6    20    21   ar
     7    21    12    1
     8    12    13    1
     9    13    14    1
    10    14    15    1
    11    15     5    1
    12     5     6   ar
    13     6     7   ar
    14     7     8   ar
    15     8     1    1
    16     1     2    2
    17     1     3   am
    18     3    28    1
    19    28    39    1
    20    39    40    1
    21    40    41   ar
    22    41    42   ar
    23    42    43   ar
    24    43    44   ar
    25    44    45   ar
    26    45    46   ar
    27    46    47   ar
    28    47    48   ar
    29    28    29    1
    30    29    30    2
    31    29    31   am
    32    31    33    1
    33    33    34   ar
    34    34    35   ar
    35    35    36   ar
    36    36    37   ar
    37    37    38   ar
    38     8     9   ar
    39     9    10    1
    40     9    11   ar
    41    15    16    1
    42    16    17    1
    43    21    22   ar
    44    22    23   ar
    45    23    24    1
    46    23    18   ar
    47    17    12    1
    48    11     5   ar
    49    48    40   ar
    50    38    33   ar
    51    48    43   ar
    52     3     4    1
    53    42    49    1
    54    31    32    1
@<TRIPOS>MOLECULE
*****
 49 54 0 0 0
SMALL
GASTEIGER

@<TRIPOS>ATOM
      1 C         -60.7374  -46.1227  -24.5513 C.2     1  UNL1        0.2483
      2 O         -59.6184  -45.8369  -24.0437 O.2     1  UNL1       -0.2701
      3 N         -61.4979  -45.1043  -25.2200 N.am    1  UNL1       -0.2945
      4 H         -62.5124  -45.2797  -25.3827 H       1  UNL1        0.1501
      5 C         -62.2273  -50.1402  -24.1590 C.ar    1  UNL1        0.0502
      6 C         -61.0010  -49.7711  -23.5872 C.ar    1  UNL1        0.0148
      7 C         -60.5201  -48.4665  -23.7256 C.ar    1  UNL1        0.0080
      8 C         -61.2632  -47.5011  -24.4255 C.ar    1  UNL1        0.0808
      9 C         -62.4897  -47.8751  -25.0100 C.ar    1  UNL1        0.1457
     10 F         -63.2102  -46.9961  -25.7521 F       1  UNL1       -0.2040
     11 C         -62.9661  -49.1823  -24.8705 C.ar    1  UNL1        0.0443
     12 N         -64.5855  -53.4385  -23.2520 N.pl3   1  UNL1       -0.3040
     13 C         -64.8433  -52.6250  -24.4531 C.3     1  UNL1        0.1122
     14 C         -63.5421  -52.0989  -25.0598 C.3     1  UNL1        0.1122
     15 N         -62.7290  -51.4809  -24.0065 N.pl3   1  UNL1       -0.3040
     16 C         -62.5015  -52.1996  -22.7438 C.3     1  UNL1        0.1122
     17 C         -63.2171  -53.5578  -22.7217 C.3     1  UNL1        0.1122
     18 C         -67.7277  -55.8520  -21.6380 C.ar    1  UNL1       -0.0118
     19 C         -66.3760  -56.1498  -21.3762 C.ar    1  UNL1       -0.0022
     20 C         -65.3517  -55.3623  -21.9034 C.ar    1  UNL1        0.0142
     21 C         -65.6469  -54.2548  -22.7111 C.ar    1  UNL1        0.0488
     22 C         -66.9915  -53.9476  -22.9743 C.ar    1  UNL1        0.0256
     23 C         -68.0269  -54.7307  -22.4494 C.ar    1  UNL1        0.0549
     24 CL        -69.6779  -54.2532  -22.8388 Cl      1  UNL1       -0.0825
     25 C         -69.5832  -56.0000  -19.9361 C.3     1  UNL1        0.0047
     26 C         -68.8201  -56.7345  -21.0457 C.3     1  UNL1        0.0232
     27 C         -69.7778  -57.2340  -22.1348 C.3     1  UNL1        0.0047
     28 C         -60.9227  -43.7982  -25.5666 C.3     1  UNL1        0.1535
     29 C         -60.9903  -43.5559  -27.0559 C.2     1  UNL1        0.2443
     30 O         -61.2515  -42.4010  -27.4918 O.2     1  UNL1       -0.2730
     31 N         -60.7521  -44.6428  -27.9651 N.am    1  UNL1       -0.2825
     32 H         -60.7533  -45.6113  -27.5719 H       1  UNL1        0.1549
     33 C         -60.6362  -44.4993  -29.3917 C.ar    1  UNL1        0.0535
     34 C         -59.4178  -44.8025  -30.0152 C.ar    1  UNL1        0.0353
     35 C         -59.2882  -44.6434  -31.3969 C.ar    1  UNL1        0.1002
     36 N         -60.3340  -44.1806  -32.1310 N.ar    1  UNL1       -0.2422
     37 C         -61.5215  -43.8592  -31.5534 C.ar    1  UNL1        0.1002
     38 C         -61.6941  -44.0047  -30.1746 C.ar    1  UNL1        0.0353
     39 C         -61.6026  -42.6539  -24.7827 C.3     1  UNL1        0.0569
     40 C         -61.0490  -42.4684  -23.3937 C.ar    1  UNL1       -0.0017
     41 C         -59.7917  -42.8672  -22.9478 C.ar    1  UNL1        0.0681
     42 N         -59.6111  -42.5104  -21.6565 N.ar    1  UNL1       -0.3523
     43 C         -60.7441  -41.8939  -21.2795 C.ar    1  UNL1        0.0563
     44 C         -61.0322  -41.3517  -20.0277 C.ar    1  UNL1        0.0170
     45 C         -62.2924  -40.7549  -19.8434 C.ar    1  UNL1        0.0015
     46 C         -63.2281  -40.7187  -20.9005 C.ar    1  UNL1        0.0001
     47 C         -62.9115  -41.2760  -22.1525 C.ar    1  UNL1        0.0012
     48 C         -61.6491  -41.8519  -22.3102 C.ar    1  UNL1        0.0131
     49 H         -58.7622  -42.6830  -21.0735 H       1  UNL1        0.1660
@<TRIPOS>BOND
     1    25    26    1
     2    26    27    1
     3    26    18    1
     4    18    19   ar
     5    19    20   ar
     6    20    21   ar
     7    21    12    1
     8    12    13    1
     9    13    14    1
    10    14    15    1
    11    15     5    1
    12     5     6   ar
    13     6     7   ar
    14     7     8   ar
    15     8     1    1
    16     1     2    2
    17     1     3   am
    18     3    28    1
    19    28    39    1
    20    39    40    1
    21    40    41   ar
    22    41    42   ar
    23    42    43   ar
    24    43    44   ar
    25    44    45   ar
    26    45    46   ar
    27    46    47   ar
    28    47    48   ar
    29    28    29    1
    30    29    30    2
    31    29    31   am
    32    31    33    1
    33    33    34   ar
    34    34    35   ar
    35    35    36   ar
    36    36    37   ar
    37    37    38   ar
    38     8     9   ar
    39     9    10    1
    40     9    11   ar
    41    15    16    1
    42    16    17    1
    43    21    22   ar
    44    22    23   ar
    45    23    24    1
    46    23    18   ar
    47    17    12    1
    48    11     5   ar
    49    48    40   ar
    50    38    33   ar
    51    48    43   ar
    52     3     4    1
    53    42    49    1
    54    31    32    1
@<TRIPOS>MOLECULE
*****
 49 54 0 0 0
SMALL
GASTEIGER

@<TRIPOS>ATOM
      1 C         -61.6662  -46.5451  -25.5298 C.2     1  UNL1        0.2483
      2 O         -60.6829  -47.3355  -25.5325 O.2     1  UNL1       -0.2701
      3 N         -62.6654  -46.6470  -26.5564 N.am    1  UNL1       -0.2945
      4 H         -63.3023  -45.8344  -26.7007 H       1  UNL1        0.1501
      5 C         -61.9455  -43.5542  -22.4493 C.ar    1  UNL1        0.0502
      6 C         -62.0552  -44.9172  -22.1375 C.ar    1  UNL1        0.0148
      7 C         -61.9713  -45.8822  -23.1445 C.ar    1  UNL1        0.0080
      8 C         -61.7607  -45.5041  -24.4812 C.ar    1  UNL1        0.0808
      9 C         -61.6622  -44.1340  -24.7960 C.ar    1  UNL1        0.1457
     10 F         -61.5261  -43.7173  -26.0806 F       1  UNL1       -0.2040
     11 C         -61.7487  -43.1718  -23.7851 C.ar    1  UNL1        0.0443
     12 N         -62.8735  -40.1701  -20.2246 N.pl3   1  UNL1       -0.3040
     13 C         -63.8052  -41.3087  -20.3036 C.3     1  UNL1        0.1122
     14 C         -63.0546  -42.6392  -20.3734 C.3     1  UNL1        0.1122
     15 N         -62.0198  -42.5602  -21.4105 N.pl3   1  UNL1       -0.3040
     16 C         -61.1085  -41.4067  -21.4459 C.3     1  UNL1        0.1122
     17 C         -61.4226  -40.3952  -20.3343 C.3     1  UNL1        0.1122
     18 C         -64.3698  -36.3121  -19.1381 C.ar    1  UNL1       -0.0118
     19 C         -64.9841  -37.4885  -18.6657 C.ar    1  UNL1       -0.0022
     20 C         -64.4957  -38.7464  -19.0210 C.ar    1  UNL1        0.0142
     21 C         -63.3801  -38.8673  -19.8618 C.ar    1  UNL1        0.0488
     22 C         -62.7585  -37.7003  -20.3343 C.ar    1  UNL1        0.0256
     23 C         -63.2400  -36.4332  -19.9831 C.ar    1  UNL1        0.0549
     24 CL        -62.3821  -35.0357  -20.6284 Cl      1  UNL1       -0.0825
     25 C         -66.3664  -34.7743  -19.2389 C.3     1  UNL1        0.0047
     26 C         -64.9309  -34.9551  -18.7296 C.3     1  UNL1        0.0232
     27 C         -64.8575  -34.7618  -17.2097 C.3     1  UNL1        0.0047
     28 C         -62.7350  -47.7944  -27.4704 C.3     1  UNL1        0.1535
     29 C         -63.2100  -49.0328  -26.7479 C.2     1  UNL1        0.2443
     30 O         -63.8804  -49.9026  -27.3692 O.2     1  UNL1       -0.2730
     31 N         -62.8906  -49.2125  -25.3585 N.am    1  UNL1       -0.2825
     32 H         -62.5271  -48.3842  -24.8348 H       1  UNL1        0.1549
     33 C         -63.1525  -50.4143  -24.6125 C.ar    1  UNL1        0.0535
     34 C         -62.2666  -50.7978  -23.5961 C.ar    1  UNL1        0.0353
     35 C         -62.4993  -51.9758  -22.8822 C.ar    1  UNL1        0.1002
     36 N         -63.5710  -52.7552  -23.1836 N.ar    1  UNL1       -0.2422
     37 C         -64.4369  -52.4210  -24.1764 C.ar    1  UNL1        0.1002
     38 C         -64.2417  -51.2505  -24.9141 C.ar    1  UNL1        0.0353
     39 C         -63.6219  -47.4883  -28.6975 C.3     1  UNL1        0.0569
     40 C         -63.3584  -46.1344  -29.3038 C.ar    1  UNL1       -0.0017
     41 C         -62.1238  -45.6450  -29.7219 C.ar    1  UNL1        0.0681
     42 N         -62.2582  -44.4084  -30.2514 N.ar    1  UNL1       -0.3523
     43 C         -63.5656  -44.1087  -30.1677 C.ar    1  UNL1        0.0563
     44 C         -64.1891  -42.9335  -30.5848 C.ar    1  UNL1        0.0170
     45 C         -65.5782  -42.8222  -30.3940 C.ar    1  UNL1        0.0015
     46 C         -66.3039  -43.8735  -29.7924 C.ar    1  UNL1        0.0001
     47 C         -65.6483  -45.0472  -29.3787 C.ar    1  UNL1        0.0012
     48 C         -64.2708  -45.1347  -29.5907 C.ar    1  UNL1        0.0131
     49 H         -61.4971  -43.8103  -30.6429 H       1  UNL1        0.1660
@<TRIPOS>BOND
     1    25    26    1
     2    26    27    1
     3    26    18    1
     4    18    19   ar
     5    19    20   ar
     6    20    21   ar
     7    21    12    1
     8    12    13    1
     9    13    14    1
    10    14    15    1
    11    15     5    1
    12     5     6   ar
    13     6     7   ar
    14     7     8   ar
    15     8     1    1
    16     1     2    2
    17     1     3   am
    18     3    28    1
    19    28    39    1
    20    39    40    1
    21    40    41   ar
    22    41    42   ar
    23    42    43   ar
    24    43    44   ar
    25    44    45   ar
    26    45    46   ar
    27    46    47   ar
    28    47    48   ar
    29    28    29    1
    30    29    30    2
    31    29    31   am
    32    31    33    1
    33    33    34   ar
    34    34    35   ar
    35    35    36   ar
    36    36    37   ar
    37    37    38   ar
    38     8     9   ar
    39     9    10    1
    40     9    11   ar
    41    15    16    1
    42    16    17    1
    43    21    22   ar
    44    22    23   ar
    45    23    24    1
    46    23    18   ar
    47    17    12    1
    48    11     5   ar
    49    48    40   ar
    50    38    33   ar
    51    48    43   ar
    52     3     4    1
    53    42    49    1
    54    31    32    1
@<TRIPOS>MOLECULE
*****
 49 54 0 0 0
SMALL
GASTEIGER

@<TRIPOS>ATOM
      1 C         -61.4311  -47.3127  -25.0726 C.2     1  UNL1        0.2483
      2 O         -60.4887  -46.8537  -24.3706 O.2     1  UNL1       -0.2701
      3 N         -61.9521  -46.5356  -26.1624 N.am    1  UNL1       -0.2945
      4 H         -62.8865  -46.7952  -26.5446 H       1  UNL1        0.1501
      5 C         -63.1396  -51.1504  -24.1416 C.ar    1  UNL1        0.0502
      6 C         -63.8729  -50.1938  -24.8588 C.ar    1  UNL1        0.0148
      7 C         -63.3141  -48.9468  -25.1505 C.ar    1  UNL1        0.0080
      8 C         -62.0052  -48.6373  -24.7442 C.ar    1  UNL1        0.0808
      9 C         -61.2727  -49.5941  -24.0134 C.ar    1  UNL1        0.1457
     10 F         -60.0307  -49.3162  -23.5416 F       1  UNL1       -0.2040
     11 C         -61.8368  -50.8399  -23.7222 C.ar    1  UNL1        0.0443
     12 N         -65.5397  -54.2155  -22.6902 N.pl3   1  UNL1       -0.3040
     13 C         -65.9580  -53.4027  -23.8457 C.3     1  UNL1        0.1122
     14 C         -64.7605  -53.0019  -24.7080 C.3     1  UNL1        0.1122
     15 N         -63.7105  -52.4397  -23.8513 N.pl3   1  UNL1       -0.3040
     16 C         -63.3021  -53.1543  -22.6328 C.3     1  UNL1        0.1122
     17 C         -64.1089  -54.4446  -22.4288 C.3     1  UNL1        0.1122
     18 C         -68.4945  -56.3223  -20.4244 C.ar    1  UNL1       -0.0118
     19 C         -67.2365  -56.8979  -20.6898 C.ar    1  UNL1       -0.0022
     20 C         -66.2735  -56.2102  -21.4294 C.ar    1  UNL1        0.0142
     21 C         -66.5394  -54.9273  -21.9290 C.ar    1  UNL1        0.0488
     22 C         -67.7891  -54.3435  -21.6659 C.ar    1  UNL1        0.0256
     23 C         -68.7620  -55.0247  -20.9241 C.ar    1  UNL1        0.0549
     24 CL        -70.2937  -54.1978  -20.6492 Cl      1  UNL1       -0.0825
     25 C         -69.7431  -56.4621  -18.2374 C.3     1  UNL1        0.0047
     26 C         -69.5222  -57.1029  -19.6134 C.3     1  UNL1        0.0232
     27 C         -70.8451  -57.2344  -20.3783 C.3     1  UNL1        0.0047
     28 C         -61.2715  -45.3345  -26.6633 C.3     1  UNL1        0.1535
     29 C         -61.1358  -45.3778  -28.1670 C.2     1  UNL1        0.2443
     30 O         -61.7137  -46.2879  -28.8225 O.2     1  UNL1       -0.2730
     31 N         -60.3525  -44.3785  -28.8398 N.am    1  UNL1       -0.2825
     32 H         -59.7249  -43.7814  -28.2549 H       1  UNL1        0.1549
     33 C         -60.2801  -44.2275  -30.2685 C.ar    1  UNL1        0.0535
     34 C         -61.3409  -43.6127  -30.9482 C.ar    1  UNL1        0.0353
     35 C         -61.2907  -43.4831  -32.3381 C.ar    1  UNL1        0.1002
     36 N         -60.2254  -43.9662  -33.0299 N.ar    1  UNL1       -0.2422
     37 C         -59.1908  -44.5847  -32.4021 C.ar    1  UNL1        0.1002
     38 C         -59.2005  -44.7342  -31.0130 C.ar    1  UNL1        0.0353
     39 C         -61.9865  -44.0448  -26.2035 C.3     1  UNL1        0.0569
     40 C         -61.2569  -43.3146  -25.1060 C.ar    1  UNL1       -0.0017
     41 C         -60.2982  -42.3190  -25.2747 C.ar    1  UNL1        0.0681
     42 N         -59.8780  -41.8569  -24.0758 N.ar    1  UNL1       -0.3523
     43 C         -60.5581  -42.5543  -23.1499 C.ar    1  UNL1        0.0563
     44 C         -60.4612  -42.4332  -21.7643 C.ar    1  UNL1        0.0170
     45 C         -61.2640  -43.2740  -20.9726 C.ar    1  UNL1        0.0015
     46 C         -62.1316  -44.2104  -21.5764 C.ar    1  UNL1        0.0001
     47 C         -62.2070  -44.3128  -22.9772 C.ar    1  UNL1        0.0012
     48 C         -61.4070  -43.4579  -23.7381 C.ar    1  UNL1        0.0131
     49 H         -59.1671  -41.1107  -23.9080 H       1  UNL1        0.1660
@<TRIPOS>BOND
     1    25    26    1
     2    26    27    1
     3    26    18    1
     4    18    19   ar
     5    19    20   ar
     6    20    21   ar
     7    21    12    1
     8    12    13    1
     9    13    14    1
    10    14    15    1
    11    15     5    1
    12     5     6   ar
    13     6     7   ar
    14     7     8   ar
    15     8     1    1
    16     1     2    2
    17     1     3   am
    18     3    28    1
    19    28    39    1
    20    39    40    1
    21    40    41   ar
    22    41    42   ar
    23    42    43   ar
    24    43    44   ar
    25    44    45   ar
    26    45    46   ar
    27    46    47   ar
    28    47    48   ar
    29    28    29    1
    30    29    30    2
    31    29    31   am
    32    31    33    1
    33    33    34   ar
    34    34    35   ar
    35    35    36   ar
    36    36    37   ar
    37    37    38   ar
    38     8     9   ar
    39     9    10    1
    40     9    11   ar
    41    15    16    1
    42    16    17    1
    43    21    22   ar
    44    22    23   ar
    45    23    24    1
    46    23    18   ar
    47    17    12    1
    48    11     5   ar
    49    48    40   ar
    50    38    33   ar
    51    48    43   ar
    52     3     4    1
    53    42    49    1
    54    31    32    1
@<TRIPOS>MOLECULE
*****
 49 54 0 0 0
SMALL
GASTEIGER

@<TRIPOS>ATOM
      1 C         -60.6725  -44.4850  -27.1106 C.2     1  UNL1        0.2483
      2 O         -60.4046  -45.7179  -27.1039 O.2     1  UNL1       -0.2701
      3 N         -60.5160  -43.7281  -28.3212 N.am    1  UNL1       -0.2945
      4 H         -60.4714  -42.6895  -28.2456 H       1  UNL1        0.1501
      5 C         -61.9329  -42.6011  -23.4533 C.ar    1  UNL1        0.0502
      6 C         -60.8006  -43.4284  -23.4807 C.ar    1  UNL1        0.0148
      7 C         -60.4021  -44.0429  -24.6706 C.ar    1  UNL1        0.0080
      8 C         -61.1191  -43.8302  -25.8601 C.ar    1  UNL1        0.0808
      9 C         -62.2635  -43.0085  -25.8300 C.ar    1  UNL1        0.1457
     10 F         -63.0265  -42.8273  -26.9379 F       1  UNL1       -0.2040
     11 C         -62.6596  -42.3971  -24.6364 C.ar    1  UNL1        0.0443
     12 N         -63.2346  -39.8311  -20.6436 N.pl3   1  UNL1       -0.3040
     13 C         -64.1871  -40.5202  -21.5317 C.3     1  UNL1        0.1122
     14 C         -63.7446  -41.9558  -21.8169 C.3     1  UNL1        0.1122
     15 N         -62.3369  -41.9581  -22.2303 N.pl3   1  UNL1       -0.3040
     16 C         -61.3426  -41.2181  -21.4389 C.3     1  UNL1        0.1122
     17 C         -61.9837  -40.4974  -20.2445 C.3     1  UNL1        0.1122
     18 C         -64.3692  -36.1341  -18.8138 C.ar    1  UNL1       -0.0118
     19 C         -65.1110  -37.3111  -18.5931 C.ar    1  UNL1       -0.0022
     20 C         -64.7405  -38.5164  -19.1907 C.ar    1  UNL1        0.0142
     21 C         -63.6189  -38.5817  -20.0297 C.ar    1  UNL1        0.0488
     22 C         -62.8707  -37.4145  -20.2524 C.ar    1  UNL1        0.0256
     23 C         -63.2334  -36.2002  -19.6568 C.ar    1  UNL1        0.0549
     24 CL        -62.2223  -34.7984  -20.0004 Cl      1  UNL1       -0.0825
     25 C         -66.1367  -34.3374  -18.7173 C.3     1  UNL1        0.0047
     26 C         -64.8036  -34.8353  -18.1447 C.3     1  UNL1        0.0232
     27 C         -64.8853  -34.9990  -16.6218 C.3     1  UNL1        0.0047
     28 C         -60.3007  -44.3706  -29.6241 C.3     1  UNL1        0.1535
     29 C         -60.9921  -45.7121  -29.6860 C.2     1  UNL1        0.2443
     30 O         -60.3288  -46.7465  -29.9721 O.2     1  UNL1       -0.2730
     31 N         -62.4004  -45.7999  -29.4140 N.am    1  UNL1       -0.2825
     32 H         -62.9456  -44.9083  -29.3945 H       1  UNL1        0.1549
     33 C         -63.1295  -47.0337  -29.2907 C.ar    1  UNL1        0.0535
     34 C         -64.1370  -47.3312  -30.2189 C.ar    1  UNL1        0.0353
     35 C         -64.8668  -48.5156  -30.0935 C.ar    1  UNL1        0.1002
     36 N         -64.6123  -49.3677  -29.0658 N.ar    1  UNL1       -0.2422
     37 C         -63.6559  -49.0982  -28.1386 C.ar    1  UNL1        0.1002
     38 C         -62.9020  -47.9253  -28.2276 C.ar    1  UNL1        0.0353
     39 C         -60.7475  -43.4572  -30.7869 C.3     1  UNL1        0.0569
     40 C         -61.8026  -42.4571  -30.3911 C.ar    1  UNL1       -0.0017
     41 C         -61.5798  -41.1551  -29.9509 C.ar    1  UNL1        0.0681
     42 N         -62.7533  -40.5257  -29.7178 N.ar    1  UNL1       -0.3523
     43 C         -63.7165  -41.4189  -30.0015 C.ar    1  UNL1        0.0563
     44 C         -65.0948  -41.2297  -29.9096 C.ar    1  UNL1        0.0170
     45 C         -65.9311  -42.3085  -30.2492 C.ar    1  UNL1        0.0015
     46 C         -65.3775  -43.5399  -30.6630 C.ar    1  UNL1        0.0001
     47 C         -63.9828  -43.7034  -30.7441 C.ar    1  UNL1        0.0012
     48 C         -63.1773  -42.6123  -30.4117 C.ar    1  UNL1        0.0131
     49 H         -62.8805  -39.5449  -29.3829 H       1  UNL1        0.1660
@<TRIPOS>BOND
     1    25    26    1
     2    26    27    1
     3    26    18    1
     4    18    19   ar
     5    19    20   ar
     6    20    21   ar
     7    21    12    1
     8    12    13    1
     9    13    14    1
    10    14    15    1
    11    15     5    1
    12     5     6   ar
    13     6     7   ar
    14     7     8   ar
    15     8     1    1
    16     1     2    2
    17     1     3   am
    18     3    28    1
    19    28    39    1
    20    39    40    1
    21    40    41   ar
    22    41    42   ar
    23    42    43   ar
    24    43    44   ar
    25    44    45   ar
    26    45    46   ar
    27    46    47   ar
    28    47    48   ar
    29    28    29    1
    30    29    30    2
    31    29    31   am
    32    31    33    1
    33    33    34   ar
    34    34    35   ar
    35    35    36   ar
    36    36    37   ar
    37    37    38   ar
    38     8     9   ar
    39     9    10    1
    40     9    11   ar
    41    15    16    1
    42    16    17    1
    43    21    22   ar
    44    22    23   ar
    45    23    24    1
    46    23    18   ar
    47    17    12    1
    48    11     5   ar
    49    48    40   ar
    50    38    33   ar
    51    48    43   ar
    52     3     4    1
    53    42    49    1
    54    31    32    1
