@<TRIPOS>MOLECULE
*****
 52 57 0 0 0
SMALL
GASTEIGER

@<TRIPOS>ATOM
      1 C         -62.1993  -44.9832  -23.7033 C.ar    1  UNL1        0.0483
      2 C         -62.5496  -44.6373  -22.3846 C.ar    1  UNL1        0.0108
      3 C         -62.8050  -43.3031  -22.0261 C.ar    1  UNL1        0.0809
      4 C         -62.7348  -42.3042  -23.0126 C.ar    1  UNL1        0.1457
      5 F         -63.0479  -41.0148  -22.7273 F       1  UNL1       -0.2040
      6 C         -62.3965  -42.6369  -24.3246 C.ar    1  UNL1        0.0444
      7 C         -62.1246  -43.9639  -24.6810 C.ar    1  UNL1        0.0529
      8 N         -61.8484  -44.2702  -26.0564 N.pl3   1  UNL1       -0.3039
      9 C         -60.5649  -44.8815  -26.4103 C.3     1  UNL1        0.1123
     10 C         -60.1168  -44.4062  -27.7948 C.3     1  UNL1        0.1136
     11 N         -61.2014  -44.5002  -28.7845 N.pl3   1  UNL1       -0.2897
     12 C         -62.5640  -44.8616  -28.3619 C.3     1  UNL1        0.1136
     13 C         -62.9298  -44.1684  -27.0439 C.3     1  UNL1        0.1123
     14 C         -60.8778  -44.3134  -30.1784 C.ar    1  UNL1        0.1318
     15 C         -59.6330  -44.7036  -30.7005 C.ar    1  UNL1        0.0343
     16 C         -59.3558  -44.4946  -32.0523 C.ar    1  UNL1        0.0083
     17 C         -60.3173  -43.9095  -32.8894 C.ar    1  UNL1        0.0906
     18 C         -61.5327  -43.4979  -32.3214 C.ar    1  UNL1        0.1041
     19 N         -61.7801  -43.7106  -31.0021 N.ar    1  UNL1       -0.2292
     20 C         -60.0106  -43.6318  -34.3389 C.3     1  UNL1        0.4200
     21 F         -59.1855  -42.5270  -34.4598 F       1  UNL1       -0.1658
     22 F         -61.1910  -43.3890  -35.0157 F       1  UNL1       -0.1658
     23 F         -59.3723  -44.7146  -34.9187 F       1  UNL1       -0.1658
     24 C         -63.1604  -42.9784  -20.6259 C.2     1  UNL1        0.2483
     25 O         -63.1410  -43.8918  -19.7557 O.2     1  UNL1       -0.2701
     26 N         -63.4933  -41.6349  -20.2415 N.am    1  UNL1       -0.2945
     27 H         -63.2697  -40.8539  -20.8995 H       1  UNL1        0.1501
     28 C         -63.9535  -41.3066  -18.8893 C.3     1  UNL1        0.1535
     29 C         -63.6760  -39.8559  -18.5885 C.2     1  UNL1        0.2443
     30 O         -62.6920  -39.5451  -17.8630 O.2     1  UNL1       -0.2730
     31 N         -64.5183  -38.8371  -19.1506 N.am    1  UNL1       -0.2825
     32 H         -65.4745  -39.1145  -19.4685 H       1  UNL1        0.1549
     33 C         -64.1460  -37.4534  -19.2671 C.ar    1  UNL1        0.0535
     34 C         -63.0548  -37.1004  -20.0728 C.ar    1  UNL1        0.0353
     35 C         -62.6677  -35.7616  -20.1659 C.ar    1  UNL1        0.1002
     36 N         -63.3359  -34.8082  -19.4646 N.ar    1  UNL1       -0.2422
     37 C         -64.3853  -35.1215  -18.6596 C.ar    1  UNL1        0.1002
     38 C         -64.8062  -36.4482  -18.5394 C.ar    1  UNL1        0.0353
     39 C         -65.4558  -41.6134  -18.7516 C.3     1  UNL1        0.0569
     40 C         -66.0685  -41.9873  -20.0720 C.ar    1  UNL1       -0.0017
     41 C         -66.3296  -43.2765  -20.5274 C.ar    1  UNL1        0.0681
     42 N         -66.7800  -43.2449  -21.8022 N.ar    1  UNL1       -0.3523
     43 C         -66.7961  -41.9487  -22.1584 C.ar    1  UNL1        0.0563
     44 C         -67.1621  -41.4164  -23.3939 C.ar    1  UNL1        0.0170
     45 C         -67.0784  -40.0218  -23.5597 C.ar    1  UNL1        0.0015
     46 C         -66.6318  -39.2005  -22.5005 C.ar    1  UNL1        0.0001
     47 C         -66.2660  -39.7657  -21.2655 C.ar    1  UNL1        0.0012
     48 C         -66.3651  -41.1506  -21.1296 C.ar    1  UNL1        0.0131
     49 H         -67.0413  -44.0653  -22.3931 H       1  UNL1        0.1660
     50 C         -62.9049  -47.2909  -24.6784 C.3     1  UNL1        0.0773
     51 C         -61.8885  -46.3980  -24.0347 C.2     1  UNL1        0.1747
     52 O         -60.7683  -46.8856  -23.7256 O.2     1  UNL1       -0.2913
@<TRIPOS>BOND
     1    50    51    1
     2    51    52    2
     3    51     1    1
     4     1     2   ar
     5     2     3   ar
     6     3    24    1
     7    24    25    2
     8    24    26   am
     9    26    28    1
    10    28    39    1
    11    39    40    1
    12    40    41   ar
    13    41    42   ar
    14    42    43   ar
    15    43    44   ar
    16    44    45   ar
    17    45    46   ar
    18    46    47   ar
    19    47    48   ar
    20    28    29    1
    21    29    30    2
    22    29    31   am
    23    31    33    1
    24    33    34   ar
    25    34    35   ar
    26    35    36   ar
    27    36    37   ar
    28    37    38   ar
    29     3     4   ar
    30     4     5    1
    31     4     6   ar
    32     6     7   ar
    33     7     8    1
    34     8     9    1
    35     9    10    1
    36    10    11    1
    37    11    14    1
    38    14    15   ar
    39    15    16   ar
    40    16    17   ar
    41    17    20    1
    42    20    21    1
    43    20    22    1
    44    20    23    1
    45    17    18   ar
    46    18    19   ar
    47    11    12    1
    48    12    13    1
    49     7     1   ar
    50    13     8    1
    51    48    40   ar
    52    38    33   ar
    53    19    14   ar
    54    48    43   ar
    55    26    27    1
    56    42    49    1
    57    31    32    1
@<TRIPOS>MOLECULE
*****
 52 57 0 0 0
SMALL
GASTEIGER

@<TRIPOS>ATOM
      1 C         -61.3756  -44.5915  -24.5232 C.ar    1  UNL1        0.0483
      2 C         -61.1584  -43.8835  -23.3262 C.ar    1  UNL1        0.0108
      3 C         -61.8575  -42.6977  -23.0456 C.ar    1  UNL1        0.0809
      4 C         -62.8093  -42.2300  -23.9682 C.ar    1  UNL1        0.1457
      5 F         -63.5611  -41.1317  -23.7029 F       1  UNL1       -0.2040
      6 C         -63.0385  -42.9282  -25.1541 C.ar    1  UNL1        0.0444
      7 C         -62.3306  -44.1015  -25.4443 C.ar    1  UNL1        0.0529
      8 N         -62.6480  -44.8247  -26.6434 N.pl3   1  UNL1       -0.3039
      9 C         -62.3185  -44.2354  -27.9436 C.3     1  UNL1        0.1123
     10 C         -63.3575  -44.6480  -28.9896 C.3     1  UNL1        0.1136
     11 N         -63.6253  -46.0943  -28.9558 N.pl3   1  UNL1       -0.2897
     12 C         -63.0406  -46.9340  -27.8980 C.3     1  UNL1        0.1136
     13 C         -63.0924  -46.2201  -26.5418 C.3     1  UNL1        0.1123
     14 C         -64.3997  -46.6748  -30.0262 C.ar    1  UNL1        0.1318
     15 C         -64.8629  -45.8973  -31.1009 C.ar    1  UNL1        0.0343
     16 C         -65.6187  -46.4959  -32.1102 C.ar    1  UNL1        0.0083
     17 C         -65.9051  -47.8681  -32.0601 C.ar    1  UNL1        0.0906
     18 C         -65.4580  -48.6016  -30.9505 C.ar    1  UNL1        0.1041
     19 N         -64.7246  -47.9970  -29.9790 N.ar    1  UNL1       -0.2292
     20 C         -66.7634  -48.5152  -33.1169 C.3     1  UNL1        0.4200
     21 F         -67.9290  -47.7934  -33.3079 F       1  UNL1       -0.1658
     22 F         -67.0878  -49.7980  -32.7174 F       1  UNL1       -0.1658
     23 F         -66.0886  -48.5754  -34.3240 F       1  UNL1       -0.1658
     24 C         -61.5931  -41.9762  -21.7799 C.2     1  UNL1        0.2483
     25 O         -60.5019  -42.1672  -21.1760 O.2     1  UNL1       -0.2701
     26 N         -62.5459  -41.0402  -21.2511 N.am    1  UNL1       -0.2945
     27 H         -63.3192  -40.7063  -21.8702 H       1  UNL1        0.1501
     28 C         -62.3588  -40.3957  -19.9482 C.3     1  UNL1        0.1535
     29 C         -62.7210  -38.9354  -20.0387 C.2     1  UNL1        0.2443
     30 O         -62.4941  -38.3000  -21.1045 O.2     1  UNL1       -0.2730
     31 N         -63.3449  -38.2845  -18.9205 N.am    1  UNL1       -0.2825
     32 H         -63.2348  -38.7215  -17.9774 H       1  UNL1        0.1549
     33 C         -64.0767  -37.0502  -19.0083 C.ar    1  UNL1        0.0535
     34 C         -63.5081  -35.8759  -18.4964 C.ar    1  UNL1        0.0353
     35 C         -64.2261  -34.6789  -18.5498 C.ar    1  UNL1        0.1002
     36 N         -65.4772  -34.6574  -19.0803 N.ar    1  UNL1       -0.2422
     37 C         -66.0634  -35.7831  -19.5665 C.ar    1  UNL1        0.1002
     38 C         -65.3793  -37.0008  -19.5341 C.ar    1  UNL1        0.0353
     39 C         -63.2119  -41.1030  -18.8796 C.3     1  UNL1        0.0569
     40 C         -64.3547  -41.8607  -19.4949 C.ar    1  UNL1       -0.0017
     41 C         -64.5555  -43.2373  -19.4474 C.ar    1  UNL1        0.0681
     42 N         -65.6231  -43.5851  -20.2013 N.ar    1  UNL1       -0.3523
     43 C         -66.0914  -42.4421  -20.7317 C.ar    1  UNL1        0.0563
     44 C         -67.1697  -42.2944  -21.6030 C.ar    1  UNL1        0.0170
     45 C         -67.4729  -40.9989  -22.0603 C.ar    1  UNL1        0.0015
     46 C         -66.6979  -39.8933  -21.6444 C.ar    1  UNL1        0.0001
     47 C         -65.6133  -40.0727  -20.7668 C.ar    1  UNL1        0.0012
     48 C         -65.3410  -41.3680  -20.3263 C.ar    1  UNL1        0.0131
     49 H         -65.9924  -44.5499  -20.3542 H       1  UNL1        0.1660
     50 C         -60.4923  -46.9359  -23.8176 C.3     1  UNL1        0.0773
     51 C         -60.5825  -45.8155  -24.8081 C.2     1  UNL1        0.1747
     52 O         -59.9240  -45.9040  -25.8789 O.2     1  UNL1       -0.2913
@<TRIPOS>BOND
     1    50    51    1
     2    51    52    2
     3    51     1    1
     4     1     2   ar
     5     2     3   ar
     6     3    24    1
     7    24    25    2
     8    24    26   am
     9    26    28    1
    10    28    39    1
    11    39    40    1
    12    40    41   ar
    13    41    42   ar
    14    42    43   ar
    15    43    44   ar
    16    44    45   ar
    17    45    46   ar
    18    46    47   ar
    19    47    48   ar
    20    28    29    1
    21    29    30    2
    22    29    31   am
    23    31    33    1
    24    33    34   ar
    25    34    35   ar
    26    35    36   ar
    27    36    37   ar
    28    37    38   ar
    29     3     4   ar
    30     4     5    1
    31     4     6   ar
    32     6     7   ar
    33     7     8    1
    34     8     9    1
    35     9    10    1
    36    10    11    1
    37    11    14    1
    38    14    15   ar
    39    15    16   ar
    40    16    17   ar
    41    17    20    1
    42    20    21    1
    43    20    22    1
    44    20    23    1
    45    17    18   ar
    46    18    19   ar
    47    11    12    1
    48    12    13    1
    49     7     1   ar
    50    13     8    1
    51    48    40   ar
    52    38    33   ar
    53    19    14   ar
    54    48    43   ar
    55    26    27    1
    56    42    49    1
    57    31    32    1
@<TRIPOS>MOLECULE
*****
 52 57 0 0 0
SMALL
GASTEIGER

@<TRIPOS>ATOM
      1 C         -62.5500  -43.2445  -24.6973 C.ar    1  UNL1        0.0483
      2 C         -62.4278  -43.8879  -25.9433 C.ar    1  UNL1        0.0108
      3 C         -63.0547  -43.3749  -27.0911 C.ar    1  UNL1        0.0809
      4 C         -63.7929  -42.1828  -26.9926 C.ar    1  UNL1        0.1457
      5 F         -64.3508  -41.6117  -28.0901 F       1  UNL1       -0.2040
      6 C         -63.9139  -41.5324  -25.7643 C.ar    1  UNL1        0.0444
      7 C         -63.3041  -42.0508  -24.6147 C.ar    1  UNL1        0.0529
      8 N         -63.3969  -41.3121  -23.3869 N.pl3   1  UNL1       -0.3039
      9 C         -64.6108  -41.4234  -22.5743 C.3     1  UNL1        0.1123
     10 C         -64.8914  -40.0992  -21.8590 C.3     1  UNL1        0.1136
     11 N         -63.6885  -39.5660  -21.2006 N.pl3   1  UNL1       -0.2897
     12 C         -62.3822  -40.2132  -21.4021 C.3     1  UNL1        0.1136
     13 C         -62.2021  -40.6381  -22.8644 C.3     1  UNL1        0.1123
     14 C         -63.8377  -38.4536  -20.2936 C.ar    1  UNL1        0.1318
     15 C         -64.8205  -38.4533  -19.2894 C.ar    1  UNL1        0.0343
     16 C         -64.9387  -37.3521  -18.4401 C.ar    1  UNL1        0.0083
     17 C         -64.0744  -36.2560  -18.5785 C.ar    1  UNL1        0.0906
     18 C         -63.1325  -36.2779  -19.6184 C.ar    1  UNL1        0.1041
     19 N         -63.0365  -37.3607  -20.4341 N.ar    1  UNL1       -0.2292
     20 C         -64.2257  -35.0397  -17.7010 C.3     1  UNL1        0.4200
     21 F         -65.1855  -34.1844  -18.2141 F       1  UNL1       -0.1658
     22 F         -63.0168  -34.3729  -17.6345 F       1  UNL1       -0.1658
     23 F         -64.6104  -35.4053  -16.4225 F       1  UNL1       -0.1658
     24 C         -62.9109  -44.0867  -28.3815 C.2     1  UNL1        0.2483
     25 O         -62.1641  -45.1016  -28.4476 O.2     1  UNL1       -0.2701
     26 N         -63.6342  -43.6572  -29.5459 N.am    1  UNL1       -0.2945
     27 H         -64.4252  -42.9841  -29.4263 H       1  UNL1        0.1501
     28 C         -63.4276  -44.2749  -30.8588 C.3     1  UNL1        0.1535
     29 C         -64.6137  -45.1333  -31.2170 C.2     1  UNL1        0.2443
     30 O         -65.5537  -44.6460  -31.9027 O.2     1  UNL1       -0.2730
     31 N         -64.6533  -46.5063  -30.7968 N.am    1  UNL1       -0.2825
     32 H         -64.0482  -46.7886  -29.9927 H       1  UNL1        0.1549
     33 C         -65.5011  -47.5077  -31.3844 C.ar    1  UNL1        0.0535
     34 C         -65.9409  -47.3472  -32.7054 C.ar    1  UNL1        0.0353
     35 C         -66.7903  -48.3001  -33.2726 C.ar    1  UNL1        0.1002
     36 N         -67.2017  -49.3688  -32.5405 N.ar    1  UNL1       -0.2422
     37 C         -66.8085  -49.5416  -31.2510 C.ar    1  UNL1        0.1002
     38 C         -65.9578  -48.6132  -30.6461 C.ar    1  UNL1        0.0353
     39 C         -63.1998  -43.1886  -31.9257 C.3     1  UNL1        0.0569
     40 C         -61.8999  -43.3896  -32.6527 C.ar    1  UNL1       -0.0017
     41 C         -61.6930  -43.2755  -34.0245 C.ar    1  UNL1        0.0681
     42 N         -60.4280  -43.6330  -34.3426 N.ar    1  UNL1       -0.3523
     43 C         -59.8383  -43.9809  -33.1857 C.ar    1  UNL1        0.0563
     44 C         -58.5364  -44.4467  -33.0076 C.ar    1  UNL1        0.0170
     45 C         -58.1303  -44.7806  -31.7026 C.ar    1  UNL1        0.0015
     46 C         -59.0256  -44.6468  -30.6180 C.ar    1  UNL1        0.0001
     47 C         -60.3348  -44.1771  -30.8280 C.ar    1  UNL1        0.0012
     48 C         -60.7063  -43.8489  -32.1320 C.ar    1  UNL1        0.0131
     49 H         -60.0058  -43.6531  -35.2975 H       1  UNL1        0.1660
     50 C         -60.4239  -43.9387  -23.3661 C.3     1  UNL1        0.0773
     51 C         -61.9134  -43.8427  -23.4951 C.2     1  UNL1        0.1747
     52 O         -62.6298  -44.3313  -22.5807 O.2     1  UNL1       -0.2913
@<TRIPOS>BOND
     1    50    51    1
     2    51    52    2
     3    51     1    1
     4     1     2   ar
     5     2     3   ar
     6     3    24    1
     7    24    25    2
     8    24    26   am
     9    26    28    1
    10    28    39    1
    11    39    40    1
    12    40    41   ar
    13    41    42   ar
    14    42    43   ar
    15    43    44   ar
    16    44    45   ar
    17    45    46   ar
    18    46    47   ar
    19    47    48   ar
    20    28    29    1
    21    29    30    2
    22    29    31   am
    23    31    33    1
    24    33    34   ar
    25    34    35   ar
    26    35    36   ar
    27    36    37   ar
    28    37    38   ar
    29     3     4   ar
    30     4     5    1
    31     4     6   ar
    32     6     7   ar
    33     7     8    1
    34     8     9    1
    35     9    10    1
    36    10    11    1
    37    11    14    1
    38    14    15   ar
    39    15    16   ar
    40    16    17   ar
    41    17    20    1
    42    20    21    1
    43    20    22    1
    44    20    23    1
    45    17    18   ar
    46    18    19   ar
    47    11    12    1
    48    12    13    1
    49     7     1   ar
    50    13     8    1
    51    48    40   ar
    52    38    33   ar
    53    19    14   ar
    54    48    43   ar
    55    26    27    1
    56    42    49    1
    57    31    32    1
@<TRIPOS>MOLECULE
*****
 52 57 0 0 0
SMALL
GASTEIGER

@<TRIPOS>ATOM
      1 C         -62.0032  -43.7997  -23.2892 C.ar    1  UNL1        0.0483
      2 C         -61.8150  -44.6505  -24.3947 C.ar    1  UNL1        0.0108
      3 C         -62.3496  -44.3345  -25.6548 C.ar    1  UNL1        0.0809
      4 C         -63.0607  -43.1325  -25.8145 C.ar    1  UNL1        0.1457
      5 F         -63.5283  -42.7516  -27.0302 F       1  UNL1       -0.2040
      6 C         -63.2462  -42.2779  -24.7275 C.ar    1  UNL1        0.0444
      7 C         -62.7289  -42.5987  -23.4659 C.ar    1  UNL1        0.0529
      8 N         -62.8841  -41.6576  -22.3926 N.pl3   1  UNL1       -0.3039
      9 C         -63.9012  -41.9024  -21.3670 C.3     1  UNL1        0.1123
     10 C         -64.4703  -40.5749  -20.8594 C.3     1  UNL1        0.1136
     11 N         -63.4073  -39.6107  -20.5350 N.pl3   1  UNL1       -0.2897
     12 C         -62.0033  -39.9179  -20.8516 C.3     1  UNL1        0.1136
     13 C         -61.8871  -40.5935  -22.2233 C.3     1  UNL1        0.1123
     14 C         -63.7658  -38.4048  -19.8282 C.ar    1  UNL1        0.1318
     15 C         -64.8712  -38.3642  -18.9618 C.ar    1  UNL1        0.0343
     16 C         -65.1905  -37.1741  -18.3061 C.ar    1  UNL1        0.0083
     17 C         -64.4065  -36.0273  -18.5001 C.ar    1  UNL1        0.0906
     18 C         -63.3349  -36.0982  -19.4033 C.ar    1  UNL1        0.1041
     19 N         -63.0436  -37.2676  -20.0314 N.ar    1  UNL1       -0.2292
     20 C         -64.7715  -34.7233  -17.8378 C.3     1  UNL1        0.4200
     21 F         -65.9489  -34.2214  -18.3649 F       1  UNL1       -0.1658
     22 F         -63.7577  -33.8072  -18.0464 F       1  UNL1       -0.1658
     23 F         -64.9471  -34.8999  -16.4762 F       1  UNL1       -0.1658
     24 C         -62.1387  -45.2606  -26.7907 C.2     1  UNL1        0.2483
     25 O         -61.1448  -46.0379  -26.7779 O.2     1  UNL1       -0.2701
     26 N         -63.0664  -45.3080  -27.8864 N.am    1  UNL1       -0.2945
     27 H         -63.9999  -44.8510  -27.7746 H       1  UNL1        0.1501
     28 C         -62.8245  -46.1348  -29.0721 C.3     1  UNL1        0.1535
     29 C         -64.1257  -46.4140  -29.7799 C.2     1  UNL1        0.2443
     30 O         -64.9129  -45.4630  -30.0389 O.2     1  UNL1       -0.2730
     31 N         -64.4481  -47.7564  -30.1767 N.am    1  UNL1       -0.2825
     32 H         -63.9581  -48.5407  -29.6897 H       1  UNL1        0.1549
     33 C         -65.4301  -48.0917  -31.1718 C.ar    1  UNL1        0.0535
     34 C         -66.3240  -49.1435  -30.9286 C.ar    1  UNL1        0.0353
     35 C         -67.2601  -49.4956  -31.9036 C.ar    1  UNL1        0.1002
     36 N         -67.2922  -48.8320  -33.0893 N.ar    1  UNL1       -0.2422
     37 C         -66.4257  -47.8211  -33.3625 C.ar    1  UNL1        0.1002
     38 C         -65.4749  -47.4360  -32.4142 C.ar    1  UNL1        0.0353
     39 C         -61.8317  -45.4314  -30.0153 C.3     1  UNL1        0.0569
     40 C         -62.2445  -44.0142  -30.2976 C.ar    1  UNL1       -0.0017
     41 C         -63.0933  -43.5867  -31.3147 C.ar    1  UNL1        0.0681
     42 N         -63.1547  -42.2360  -31.3421 N.ar    1  UNL1       -0.3523
     43 C         -62.3448  -41.8073  -30.3584 C.ar    1  UNL1        0.0563
     44 C         -62.0602  -40.4869  -30.0134 C.ar    1  UNL1        0.0170
     45 C         -61.1562  -40.2631  -28.9588 C.ar    1  UNL1        0.0015
     46 C         -60.5607  -41.3516  -28.2832 C.ar    1  UNL1        0.0001
     47 C         -60.8644  -42.6739  -28.6551 C.ar    1  UNL1        0.0012
     48 C         -61.7684  -42.8638  -29.7005 C.ar    1  UNL1        0.0131
     49 H         -63.7047  -41.6489  -32.0079 H       1  UNL1        0.1660
     50 C         -60.0801  -43.8077  -21.5353 C.3     1  UNL1        0.0773
     51 C         -61.4648  -44.1904  -21.9603 C.2     1  UNL1        0.1747
     52 O         -62.1570  -44.9036  -21.1855 O.2     1  UNL1       -0.2913
@<TRIPOS>BOND
     1    50    51    1
     2    51    52    2
     3    51     1    1
     4     1     2   ar
     5     2     3   ar
     6     3    24    1
     7    24    25    2
     8    24    26   am
     9    26    28    1
    10    28    39    1
    11    39    40    1
    12    40    41   ar
    13    41    42   ar
    14    42    43   ar
    15    43    44   ar
    16    44    45   ar
    17    45    46   ar
    18    46    47   ar
    19    47    48   ar
    20    28    29    1
    21    29    30    2
    22    29    31   am
    23    31    33    1
    24    33    34   ar
    25    34    35   ar
    26    35    36   ar
    27    36    37   ar
    28    37    38   ar
    29     3     4   ar
    30     4     5    1
    31     4     6   ar
    32     6     7   ar
    33     7     8    1
    34     8     9    1
    35     9    10    1
    36    10    11    1
    37    11    14    1
    38    14    15   ar
    39    15    16   ar
    40    16    17   ar
    41    17    20    1
    42    20    21    1
    43    20    22    1
    44    20    23    1
    45    17    18   ar
    46    18    19   ar
    47    11    12    1
    48    12    13    1
    49     7     1   ar
    50    13     8    1
    51    48    40   ar
    52    38    33   ar
    53    19    14   ar
    54    48    43   ar
    55    26    27    1
    56    42    49    1
    57    31    32    1
@<TRIPOS>MOLECULE
*****
 52 57 0 0 0
SMALL
GASTEIGER

@<TRIPOS>ATOM
      1 C         -63.0266  -42.8607  -24.9469 C.ar    1  UNL1        0.0483
      2 C         -62.9244  -43.8859  -25.9060 C.ar    1  UNL1        0.0108
      3 C         -62.3007  -45.1072  -25.6013 C.ar    1  UNL1        0.0809
      4 C         -61.7963  -45.3134  -24.3055 C.ar    1  UNL1        0.1457
      5 F         -61.2549  -46.5048  -23.9460 F       1  UNL1       -0.2040
      6 C         -61.8995  -44.3072  -23.3446 C.ar    1  UNL1        0.0444
      7 C         -62.5056  -43.0820  -23.6507 C.ar    1  UNL1        0.0529
      8 N         -62.6519  -42.1016  -22.6120 N.pl3   1  UNL1       -0.3039
      9 C         -63.6735  -42.2980  -21.5805 C.3     1  UNL1        0.1123
     10 C         -64.2283  -40.9468  -21.1217 C.3     1  UNL1        0.1136
     11 N         -63.1548  -39.9840  -20.8295 N.pl3   1  UNL1       -0.2897
     12 C         -61.7538  -40.3184  -21.1319 C.3     1  UNL1        0.1136
     13 C         -61.6430  -41.0437  -22.4783 C.3     1  UNL1        0.1123
     14 C         -63.5006  -38.7496  -20.1668 C.ar    1  UNL1        0.1318
     15 C         -64.5508  -38.6870  -19.2355 C.ar    1  UNL1        0.0343
     16 C         -64.8602  -37.4704  -18.6254 C.ar    1  UNL1        0.0083
     17 C         -64.1205  -36.3181  -18.9298 C.ar    1  UNL1        0.0906
     18 C         -63.1056  -36.4138  -19.8941 C.ar    1  UNL1        0.1041
     19 N         -62.8229  -37.6090  -20.4760 N.ar    1  UNL1       -0.2292
     20 C         -64.4783  -34.9884  -18.3164 C.3     1  UNL1        0.4200
     21 F         -65.4019  -34.3214  -19.1025 F       1  UNL1       -0.1658
     22 F         -63.3374  -34.2157  -18.2073 F       1  UNL1       -0.1658
     23 F         -65.0269  -35.1636  -17.0576 F       1  UNL1       -0.1658
     24 C         -62.2037  -46.1571  -26.6409 C.2     1  UNL1        0.2483
     25 O         -61.1052  -46.7521  -26.8177 O.2     1  UNL1       -0.2701
     26 N         -63.3491  -46.5279  -27.4245 N.am    1  UNL1       -0.2945
     27 H         -64.2958  -46.2151  -27.1100 H       1  UNL1        0.1501
     28 C         -63.2550  -47.4840  -28.5313 C.3     1  UNL1        0.1535
     29 C         -63.6520  -48.8594  -28.0593 C.2     1  UNL1        0.2443
     30 O         -63.6387  -49.8262  -28.8693 O.2     1  UNL1       -0.2730
     31 N         -64.0179  -49.0641  -26.6854 N.am    1  UNL1       -0.2825
     32 H         -64.3217  -48.2313  -26.1316 H       1  UNL1        0.1549
     33 C         -64.0317  -50.3459  -26.0345 C.ar    1  UNL1        0.0535
     34 C         -63.7465  -50.4244  -24.6645 C.ar    1  UNL1        0.0353
     35 C         -63.7271  -51.6696  -24.0319 C.ar    1  UNL1        0.1002
     36 N         -63.9669  -52.8010  -24.7459 N.ar    1  UNL1       -0.2422
     37 C         -64.2268  -52.7591  -26.0793 C.ar    1  UNL1        0.1002
     38 C         -64.2575  -51.5342  -26.7504 C.ar    1  UNL1        0.0353
     39 C         -64.1480  -47.0309  -29.7006 C.3     1  UNL1        0.0569
     40 C         -64.3628  -45.5435  -29.6899 C.ar    1  UNL1       -0.0017
     41 C         -65.5426  -44.8803  -29.3643 C.ar    1  UNL1        0.0681
     42 N         -65.4087  -43.5502  -29.5693 N.ar    1  UNL1       -0.3523
     43 C         -64.1590  -43.3694  -30.0306 C.ar    1  UNL1        0.0563
     44 C         -63.5642  -42.1671  -30.4104 C.ar    1  UNL1        0.0170
     45 C         -62.2436  -42.2107  -30.8938 C.ar    1  UNL1        0.0015
     46 C         -61.5566  -43.4415  -30.9894 C.ar    1  UNL1        0.0001
     47 C         -62.1831  -44.6397  -30.6016 C.ar    1  UNL1        0.0012
     48 C         -63.4906  -44.5637  -30.1211 C.ar    1  UNL1        0.0131
     49 H         -66.1380  -42.8182  -29.4184 H       1  UNL1        0.1660
     50 C         -63.7119  -41.1090  -26.7458 C.3     1  UNL1        0.0773
     51 C         -63.6494  -41.5640  -25.3198 C.2     1  UNL1        0.1747
     52 O         -64.0911  -40.7967  -24.4230 O.2     1  UNL1       -0.2913
@<TRIPOS>BOND
     1    50    51    1
     2    51    52    2
     3    51     1    1
     4     1     2   ar
     5     2     3   ar
     6     3    24    1
     7    24    25    2
     8    24    26   am
     9    26    28    1
    10    28    39    1
    11    39    40    1
    12    40    41   ar
    13    41    42   ar
    14    42    43   ar
    15    43    44   ar
    16    44    45   ar
    17    45    46   ar
    18    46    47   ar
    19    47    48   ar
    20    28    29    1
    21    29    30    2
    22    29    31   am
    23    31    33    1
    24    33    34   ar
    25    34    35   ar
    26    35    36   ar
    27    36    37   ar
    28    37    38   ar
    29     3     4   ar
    30     4     5    1
    31     4     6   ar
    32     6     7   ar
    33     7     8    1
    34     8     9    1
    35     9    10    1
    36    10    11    1
    37    11    14    1
    38    14    15   ar
    39    15    16   ar
    40    16    17   ar
    41    17    20    1
    42    20    21    1
    43    20    22    1
    44    20    23    1
    45    17    18   ar
    46    18    19   ar
    47    11    12    1
    48    12    13    1
    49     7     1   ar
    50    13     8    1
    51    48    40   ar
    52    38    33   ar
    53    19    14   ar
    54    48    43   ar
    55    26    27    1
    56    42    49    1
    57    31    32    1
@<TRIPOS>MOLECULE
*****
 52 57 0 0 0
SMALL
GASTEIGER

@<TRIPOS>ATOM
      1 C         -62.8504  -42.9849  -24.1940 C.ar    1  UNL1        0.0483
      2 C         -62.7173  -44.1067  -25.0337 C.ar    1  UNL1        0.0108
      3 C         -62.0275  -45.2547  -24.6096 C.ar    1  UNL1        0.0809
      4 C         -61.4866  -45.2878  -23.3125 C.ar    1  UNL1        0.1457
      5 F         -60.8794  -46.4037  -22.8352 F       1  UNL1       -0.2040
      6 C         -61.6198  -44.1847  -22.4689 C.ar    1  UNL1        0.0444
      7 C         -62.2923  -43.0323  -22.8953 C.ar    1  UNL1        0.0529
      8 N         -62.4655  -41.9478  -21.9702 N.pl3   1  UNL1       -0.3039
      9 C         -63.2369  -42.1684  -20.7445 C.3     1  UNL1        0.1123
     10 C         -63.9780  -40.8885  -20.3487 C.3     1  UNL1        0.1136
     11 N         -63.0967  -39.7109  -20.3853 N.pl3   1  UNL1       -0.2897
     12 C         -61.7271  -39.8236  -20.9122 C.3     1  UNL1        0.1136
     13 C         -61.6927  -40.7142  -22.1599 C.3     1  UNL1        0.1123
     14 C         -63.5780  -38.4746  -19.8177 C.ar    1  UNL1        0.1318
     15 C         -64.6904  -38.4461  -18.9597 C.ar    1  UNL1        0.0343
     16 C         -65.1306  -37.2273  -18.4412 C.ar    1  UNL1        0.0083
     17 C         -64.4606  -36.0379  -18.7638 C.ar    1  UNL1        0.0906
     18 C         -63.3787  -36.1038  -19.6550 C.ar    1  UNL1        0.1041
     19 N         -62.9685  -37.3019  -20.1483 N.ar    1  UNL1       -0.2292
     20 C         -64.9577  -34.7102  -18.2515 C.3     1  UNL1        0.4200
     21 F         -66.0038  -34.2474  -19.0309 F       1  UNL1       -0.1658
     22 F         -63.9255  -33.7918  -18.2908 F       1  UNL1       -0.1658
     23 F         -65.4078  -34.8279  -16.9478 F       1  UNL1       -0.1658
     24 C         -61.9000  -46.4104  -25.5263 C.2     1  UNL1        0.2483
     25 O         -60.7844  -46.9890  -25.6399 O.2     1  UNL1       -0.2701
     26 N         -63.0343  -46.8995  -26.2595 N.am    1  UNL1       -0.2945
     27 H         -63.9896  -46.5815  -25.9783 H       1  UNL1        0.1501
     28 C         -62.9125  -47.9697  -27.2534 C.3     1  UNL1        0.1535
     29 C         -63.4030  -49.2711  -26.6722 C.2     1  UNL1        0.2443
     30 O         -63.7088  -50.2233  -27.4410 O.2     1  UNL1       -0.2730
     31 N         -63.4946  -49.4263  -25.2471 N.am    1  UNL1       -0.2825
     32 H         -63.5442  -48.5604  -24.6637 H       1  UNL1        0.1549
     33 C         -63.5630  -50.6950  -24.5745 C.ar    1  UNL1        0.0535
     34 C         -62.5822  -51.0261  -23.6296 C.ar    1  UNL1        0.0353
     35 C         -62.6242  -52.2698  -22.9951 C.ar    1  UNL1        0.1002
     36 N         -63.6023  -53.1610  -23.3057 N.ar    1  UNL1       -0.2422
     37 C         -64.5557  -52.8770  -24.2318 C.ar    1  UNL1        0.1002
     38 C         -64.5513  -51.6439  -24.8884 C.ar    1  UNL1        0.0353
     39 C         -63.7050  -47.6072  -28.5225 C.3     1  UNL1        0.0569
     40 C         -63.2963  -46.2677  -29.0675 C.ar    1  UNL1       -0.0017
     41 C         -61.9947  -45.7966  -29.2148 C.ar    1  UNL1        0.0681
     42 N         -62.0025  -44.5098  -29.6310 N.ar    1  UNL1       -0.3523
     43 C         -63.2966  -44.1618  -29.7380 C.ar    1  UNL1        0.0563
     44 C         -63.8097  -42.9201  -30.1101 C.ar    1  UNL1        0.0170
     45 C         -65.2080  -42.7658  -30.1305 C.ar    1  UNL1        0.0015
     46 C         -66.0522  -43.8425  -29.7786 C.ar    1  UNL1        0.0001
     47 C         -65.5062  -45.0837  -29.4042 C.ar    1  UNL1        0.0012
     48 C         -64.1167  -45.2076  -29.3990 C.ar    1  UNL1        0.0131
     49 H         -61.1695  -43.9064  -29.8112 H       1  UNL1        0.1660
     50 C         -63.4893  -41.3781  -26.1393 C.3     1  UNL1        0.0773
     51 C         -63.5445  -41.7698  -24.6943 C.2     1  UNL1        0.1747
     52 O         -64.1521  -41.0151  -23.8885 O.2     1  UNL1       -0.2913
@<TRIPOS>BOND
     1    50    51    1
     2    51    52    2
     3    51     1    1
     4     1     2   ar
     5     2     3   ar
     6     3    24    1
     7    24    25    2
     8    24    26   am
     9    26    28    1
    10    28    39    1
    11    39    40    1
    12    40    41   ar
    13    41    42   ar
    14    42    43   ar
    15    43    44   ar
    16    44    45   ar
    17    45    46   ar
    18    46    47   ar
    19    47    48   ar
    20    28    29    1
    21    29    30    2
    22    29    31   am
    23    31    33    1
    24    33    34   ar
    25    34    35   ar
    26    35    36   ar
    27    36    37   ar
    28    37    38   ar
    29     3     4   ar
    30     4     5    1
    31     4     6   ar
    32     6     7   ar
    33     7     8    1
    34     8     9    1
    35     9    10    1
    36    10    11    1
    37    11    14    1
    38    14    15   ar
    39    15    16   ar
    40    16    17   ar
    41    17    20    1
    42    20    21    1
    43    20    22    1
    44    20    23    1
    45    17    18   ar
    46    18    19   ar
    47    11    12    1
    48    12    13    1
    49     7     1   ar
    50    13     8    1
    51    48    40   ar
    52    38    33   ar
    53    19    14   ar
    54    48    43   ar
    55    26    27    1
    56    42    49    1
    57    31    32    1
@<TRIPOS>MOLECULE
*****
 52 57 0 0 0
SMALL
GASTEIGER

@<TRIPOS>ATOM
      1 C         -62.9354  -42.8642  -24.3883 C.ar    1  UNL1        0.0483
      2 C         -62.8087  -43.9608  -25.2616 C.ar    1  UNL1        0.0108
      3 C         -62.0888  -45.1081  -24.8887 C.ar    1  UNL1        0.0809
      4 C         -61.5103  -45.1669  -23.6089 C.ar    1  UNL1        0.1457
      5 F         -60.8719  -46.2849  -23.1795 F       1  UNL1       -0.2040
      6 C         -61.6365  -44.0890  -22.7322 C.ar    1  UNL1        0.0444
      7 C         -62.3392  -42.9369  -23.1078 C.ar    1  UNL1        0.0529
      8 N         -62.5029  -41.8806  -22.1491 N.pl3   1  UNL1       -0.3039
      9 C         -63.3051  -42.1221  -20.9473 C.3     1  UNL1        0.1123
     10 C         -64.0201  -40.8369  -20.5219 C.3     1  UNL1        0.1136
     11 N         -63.1074  -39.6831  -20.4999 N.pl3   1  UNL1       -0.2897
     12 C         -61.7306  -39.8148  -21.0031 C.3     1  UNL1        0.1136
     13 C         -61.6939  -40.6627  -22.2803 C.3     1  UNL1        0.1123
     14 C         -63.5675  -38.4544  -19.8992 C.ar    1  UNL1        0.1318
     15 C         -64.6859  -38.4281  -19.0491 C.ar    1  UNL1        0.0343
     16 C         -65.1049  -37.2163  -18.4976 C.ar    1  UNL1        0.0083
     17 C         -64.4078  -36.0322  -18.7795 C.ar    1  UNL1        0.0906
     18 C         -63.3202  -36.0942  -19.6641 C.ar    1  UNL1        0.1041
     19 N         -62.9311  -37.2855  -20.1900 N.ar    1  UNL1       -0.2292
     20 C         -64.8812  -34.7102  -18.2314 C.3     1  UNL1        0.4200
     21 F         -65.3703  -34.8623  -16.9455 F       1  UNL1       -0.1658
     22 F         -65.8868  -34.2157  -19.0407 F       1  UNL1       -0.1658
     23 F         -63.8417  -33.7970  -18.1942 F       1  UNL1       -0.1658
     24 C         -61.9696  -46.2367  -25.8397 C.2     1  UNL1        0.2483
     25 O         -60.8612  -46.8271  -25.9622 O.2     1  UNL1       -0.2701
     26 N         -63.1043  -46.6870  -26.5967 N.am    1  UNL1       -0.2945
     27 H         -64.0575  -46.3644  -26.3134 H       1  UNL1        0.1501
     28 C         -62.9889  -47.7276  -27.6223 C.3     1  UNL1        0.1535
     29 C         -63.3504  -49.0692  -27.0381 C.2     1  UNL1        0.2443
     30 O         -63.3746  -50.0885  -27.7809 O.2     1  UNL1       -0.2730
     31 N         -63.6399  -49.1819  -25.6356 N.am    1  UNL1       -0.2825
     32 H         -63.9189  -48.3147  -25.1233 H       1  UNL1        0.1549
     33 C         -63.6099  -50.4170  -24.9003 C.ar    1  UNL1        0.0535
     34 C         -62.6619  -50.5881  -23.8823 C.ar    1  UNL1        0.0353
     35 C         -62.6059  -51.7970  -23.1848 C.ar    1  UNL1        0.1002
     36 N         -63.4559  -52.8084  -23.5040 N.ar    1  UNL1       -0.2422
     37 C         -64.3727  -52.6800  -24.4992 C.ar    1  UNL1        0.1002
     38 C         -64.4633  -51.4869  -25.2204 C.ar    1  UNL1        0.0353
     39 C         -63.8955  -47.3935  -28.8208 C.3     1  UNL1        0.0569
     40 C         -64.0181  -45.9099  -29.0265 C.ar    1  UNL1       -0.0017
     41 C         -65.1960  -45.1682  -29.0196 C.ar    1  UNL1        0.0681
     42 N         -64.9453  -43.8805  -29.3482 N.ar    1  UNL1       -0.3523
     43 C         -63.6219  -43.8052  -29.5719 C.ar    1  UNL1        0.0563
     44 C         -62.8939  -42.6830  -29.9648 C.ar    1  UNL1        0.0170
     45 C         -61.5103  -42.8356  -30.1699 C.ar    1  UNL1        0.0015
     46 C         -60.8934  -44.0928  -29.9838 C.ar    1  UNL1        0.0001
     47 C         -61.6538  -45.2088  -29.5898 C.ar    1  UNL1        0.0012
     48 C         -63.0219  -45.0249  -29.3888 C.ar    1  UNL1        0.0131
     49 H         -65.6444  -43.1092  -29.4305 H       1  UNL1        0.1660
     50 C         -63.6629  -41.2219  -26.2718 C.3     1  UNL1        0.0773
     51 C         -63.6628  -41.6479  -24.8356 C.2     1  UNL1        0.1747
     52 O         -64.2524  -40.9210  -23.9917 O.2     1  UNL1       -0.2913
@<TRIPOS>BOND
     1    50    51    1
     2    51    52    2
     3    51     1    1
     4     1     2   ar
     5     2     3   ar
     6     3    24    1
     7    24    25    2
     8    24    26   am
     9    26    28    1
    10    28    39    1
    11    39    40    1
    12    40    41   ar
    13    41    42   ar
    14    42    43   ar
    15    43    44   ar
    16    44    45   ar
    17    45    46   ar
    18    46    47   ar
    19    47    48   ar
    20    28    29    1
    21    29    30    2
    22    29    31   am
    23    31    33    1
    24    33    34   ar
    25    34    35   ar
    26    35    36   ar
    27    36    37   ar
    28    37    38   ar
    29     3     4   ar
    30     4     5    1
    31     4     6   ar
    32     6     7   ar
    33     7     8    1
    34     8     9    1
    35     9    10    1
    36    10    11    1
    37    11    14    1
    38    14    15   ar
    39    15    16   ar
    40    16    17   ar
    41    17    20    1
    42    20    21    1
    43    20    22    1
    44    20    23    1
    45    17    18   ar
    46    18    19   ar
    47    11    12    1
    48    12    13    1
    49     7     1   ar
    50    13     8    1
    51    48    40   ar
    52    38    33   ar
    53    19    14   ar
    54    48    43   ar
    55    26    27    1
    56    42    49    1
    57    31    32    1
@<TRIPOS>MOLECULE
*****
 52 57 0 0 0
SMALL
GASTEIGER

@<TRIPOS>ATOM
      1 C         -61.1354  -43.0678  -23.4761 C.ar    1  UNL1        0.0483
      2 C         -60.7721  -43.8056  -24.6185 C.ar    1  UNL1        0.0108
      3 C         -61.4665  -43.6580  -25.8308 C.ar    1  UNL1        0.0809
      4 C         -62.5242  -42.7352  -25.9054 C.ar    1  UNL1        0.1457
      5 F         -63.1720  -42.5055  -27.0756 F       1  UNL1       -0.2040
      6 C         -62.8875  -41.9926  -24.7815 C.ar    1  UNL1        0.0444
      7 C         -62.2080  -42.1503  -23.5669 C.ar    1  UNL1        0.0529
      8 N         -62.5703  -41.3160  -22.4558 N.pl3   1  UNL1       -0.3039
      9 C         -63.8652  -41.5177  -21.8010 C.3     1  UNL1        0.1123
     10 C         -64.4113  -40.1830  -21.2871 C.3     1  UNL1        0.1136
     11 N         -63.3935  -39.4237  -20.5439 N.pl3   1  UNL1       -0.2897
     12 C         -62.0006  -39.8966  -20.4968 C.3     1  UNL1        0.1136
     13 C         -61.5585  -40.4324  -21.8638 C.3     1  UNL1        0.1123
     14 C         -63.8118  -38.2604  -19.7994 C.ar    1  UNL1        0.1318
     15 C         -64.9412  -38.2918  -18.9641 C.ar    1  UNL1        0.0343
     16 C         -65.3182  -37.1409  -18.2703 C.ar    1  UNL1        0.0083
     17 C         -64.5685  -35.9620  -18.3952 C.ar    1  UNL1        0.0906
     18 C         -63.4708  -35.9605  -19.2694 C.ar    1  UNL1        0.1041
     19 N         -63.1231  -37.0929  -19.9357 N.ar    1  UNL1       -0.2292
     20 C         -64.9953  -34.6992  -17.6915 C.3     1  UNL1        0.4200
     21 F         -66.2059  -34.2489  -18.1892 F       1  UNL1       -0.1658
     22 F         -64.0365  -33.7229  -17.8866 F       1  UNL1       -0.1658
     23 F         -65.1417  -34.9230  -16.3334 F       1  UNL1       -0.1658
     24 C         -61.0604  -44.4601  -27.0073 C.2     1  UNL1        0.2483
     25 O         -60.8895  -45.7035  -26.8783 O.2     1  UNL1       -0.2701
     26 N         -60.8920  -43.8475  -28.2957 N.am    1  UNL1       -0.2945
     27 H         -61.2692  -42.8844  -28.4474 H       1  UNL1        0.1501
     28 C         -60.3865  -44.5957  -29.4500 C.3     1  UNL1        0.1535
     29 C         -60.9725  -45.9844  -29.4608 C.2     1  UNL1        0.2443
     30 O         -60.2068  -46.9856  -29.5102 O.2     1  UNL1       -0.2730
     31 N         -62.3966  -46.1582  -29.3893 N.am    1  UNL1       -0.2825
     32 H         -63.0015  -45.3511  -29.6633 H       1  UNL1        0.1549
     33 C         -63.0434  -47.3829  -29.0039 C.ar    1  UNL1        0.0535
     34 C         -64.0138  -47.9425  -29.8462 C.ar    1  UNL1        0.0353
     35 C         -64.6691  -49.1153  -29.4637 C.ar    1  UNL1        0.1002
     36 N         -64.3787  -49.7011  -28.2721 N.ar    1  UNL1       -0.2422
     37 C         -63.4572  -49.1716  -27.4249 C.ar    1  UNL1        0.1002
     38 C         -62.7775  -48.0008  -27.7697 C.ar    1  UNL1        0.0353
     39 C         -60.7260  -43.8513  -30.7541 C.3     1  UNL1        0.0569
     40 C         -61.8135  -42.8353  -30.5455 C.ar    1  UNL1       -0.0017
     41 C         -61.6446  -41.5134  -30.1434 C.ar    1  UNL1        0.0681
     42 N         -62.8451  -40.9214  -29.9502 N.ar    1  UNL1       -0.3523
     43 C         -63.7694  -41.8604  -30.2170 C.ar    1  UNL1        0.0563
     44 C         -65.1549  -41.7305  -30.1318 C.ar    1  UNL1        0.0170
     45 C         -65.9408  -42.8579  -30.4333 C.ar    1  UNL1        0.0015
     46 C         -65.3310  -44.0768  -30.8051 C.ar    1  UNL1        0.0001
     47 C         -63.9301  -44.1796  -30.8798 C.ar    1  UNL1        0.0012
     48 C         -63.1781  -43.0433  -30.5805 C.ar    1  UNL1        0.0131
     49 H         -63.0145  -39.9397  -29.6370 H       1  UNL1        0.1660
     50 C         -58.9149  -43.2109  -22.1259 C.3     1  UNL1        0.0773
     51 C         -60.4095  -43.2860  -22.1979 C.2     1  UNL1        0.1747
     52 O         -61.0479  -43.5935  -21.1559 O.2     1  UNL1       -0.2913
@<TRIPOS>BOND
     1    50    51    1
     2    51    52    2
     3    51     1    1
     4     1     2   ar
     5     2     3   ar
     6     3    24    1
     7    24    25    2
     8    24    26   am
     9    26    28    1
    10    28    39    1
    11    39    40    1
    12    40    41   ar
    13    41    42   ar
    14    42    43   ar
    15    43    44   ar
    16    44    45   ar
    17    45    46   ar
    18    46    47   ar
    19    47    48   ar
    20    28    29    1
    21    29    30    2
    22    29    31   am
    23    31    33    1
    24    33    34   ar
    25    34    35   ar
    26    35    36   ar
    27    36    37   ar
    28    37    38   ar
    29     3     4   ar
    30     4     5    1
    31     4     6   ar
    32     6     7   ar
    33     7     8    1
    34     8     9    1
    35     9    10    1
    36    10    11    1
    37    11    14    1
    38    14    15   ar
    39    15    16   ar
    40    16    17   ar
    41    17    20    1
    42    20    21    1
    43    20    22    1
    44    20    23    1
    45    17    18   ar
    46    18    19   ar
    47    11    12    1
    48    12    13    1
    49     7     1   ar
    50    13     8    1
    51    48    40   ar
    52    38    33   ar
    53    19    14   ar
    54    48    43   ar
    55    26    27    1
    56    42    49    1
    57    31    32    1
@<TRIPOS>MOLECULE
*****
 52 57 0 0 0
SMALL
GASTEIGER

@<TRIPOS>ATOM
      1 C         -61.3160  -43.9251  -23.8294 C.ar    1  UNL1        0.0483
      2 C         -60.9880  -45.2658  -24.1056 C.ar    1  UNL1        0.0108
      3 C         -60.9556  -46.2315  -23.0858 C.ar    1  UNL1        0.0809
      4 C         -61.2846  -45.8516  -21.7730 C.ar    1  UNL1        0.1457
      5 F         -61.3402  -46.7665  -20.7722 F       1  UNL1       -0.2040
      6 C         -61.6192  -44.5272  -21.4894 C.ar    1  UNL1        0.0444
      7 C         -61.6355  -43.5587  -22.5012 C.ar    1  UNL1        0.0529
      8 N         -62.0527  -42.2236  -22.1769 N.pl3   1  UNL1       -0.3039
      9 C         -61.0415  -41.1745  -22.0241 C.3     1  UNL1        0.1123
     10 C         -61.4872  -40.1605  -20.9673 C.3     1  UNL1        0.1136
     11 N         -62.8782  -39.7280  -21.1745 N.pl3   1  UNL1       -0.2897
     12 C         -63.7123  -40.3737  -22.2008 C.3     1  UNL1        0.1136
     13 C         -63.4815  -41.8895  -22.2191 C.3     1  UNL1        0.1123
     14 C         -63.3705  -38.6076  -20.4098 C.ar    1  UNL1        0.1318
     15 C         -64.5042  -38.7228  -19.5877 C.ar    1  UNL1        0.0343
     16 C         -64.9542  -37.6113  -18.8734 C.ar    1  UNL1        0.0083
     17 C         -64.2730  -36.3885  -18.9648 C.ar    1  UNL1        0.0906
     18 C         -63.1690  -36.3041  -19.8268 C.ar    1  UNL1        0.1041
     19 N         -62.7497  -37.3994  -20.5134 N.ar    1  UNL1       -0.2292
     20 C         -64.7793  -35.1684  -18.2388 C.3     1  UNL1        0.4200
     21 F         -65.7880  -34.5546  -18.9611 F       1  UNL1       -0.1658
     22 F         -63.7384  -34.2749  -18.0692 F       1  UNL1       -0.1658
     23 F         -65.2844  -35.5139  -16.9972 F       1  UNL1       -0.1658
     24 C         -60.5956  -47.6295  -23.4151 C.2     1  UNL1        0.2483
     25 O         -59.3934  -47.9140  -23.6715 O.2     1  UNL1       -0.2701
     26 N         -61.5887  -48.6674  -23.4133 N.am    1  UNL1       -0.2945
     27 H         -62.5142  -48.4766  -22.9662 H       1  UNL1        0.1501
     28 C         -61.2816  -50.0353  -23.8405 C.3     1  UNL1        0.1535
     29 C         -62.2040  -51.0092  -23.1531 C.2     1  UNL1        0.2443
     30 O         -62.6584  -50.7382  -22.0080 O.2     1  UNL1       -0.2730
     31 N         -62.5792  -52.2266  -23.8170 N.am    1  UNL1       -0.2825
     32 H         -61.9662  -52.5696  -24.5910 H       1  UNL1        0.1549
     33 C         -63.7204  -53.0243  -23.4593 C.ar    1  UNL1        0.0535
     34 C         -63.5741  -54.0487  -22.5140 C.ar    1  UNL1        0.0353
     35 C         -64.6710  -54.8484  -22.1847 C.ar    1  UNL1        0.1002
     36 N         -65.8701  -54.6444  -22.7912 N.ar    1  UNL1       -0.2422
     37 C         -66.0383  -53.6723  -23.7261 C.ar    1  UNL1        0.1002
     38 C         -64.9676  -52.8490  -24.0832 C.ar    1  UNL1        0.0353
     39 C         -61.4071  -50.1537  -25.3703 C.3     1  UNL1        0.0569
     40 C         -62.4271  -49.1957  -25.9186 C.ar    1  UNL1       -0.0017
     41 C         -63.8106  -49.3365  -25.8585 C.ar    1  UNL1        0.0681
     42 N         -64.4167  -48.3446  -26.5498 N.ar    1  UNL1       -0.3523
     43 C         -63.4283  -47.5854  -27.0536 C.ar    1  UNL1        0.0563
     44 C         -63.5581  -46.4569  -27.8620 C.ar    1  UNL1        0.0170
     45 C         -62.3808  -45.8248  -28.3024 C.ar    1  UNL1        0.0015
     46 C         -61.1149  -46.3314  -27.9325 C.ar    1  UNL1        0.0001
     47 C         -61.0144  -47.4739  -27.1181 C.ar    1  UNL1        0.0012
     48 C         -62.1991  -48.0752  -26.6927 C.ar    1  UNL1        0.0131
     49 H         -65.4442  -48.2116  -26.6804 H       1  UNL1        0.1660
     50 C         -62.4758  -42.7140  -25.8199 C.3     1  UNL1        0.0773
     51 C         -61.2923  -42.9213  -24.9249 C.2     1  UNL1        0.1747
     52 O         -60.2433  -42.2607  -25.1510 O.2     1  UNL1       -0.2913
@<TRIPOS>BOND
     1    50    51    1
     2    51    52    2
     3    51     1    1
     4     1     2   ar
     5     2     3   ar
     6     3    24    1
     7    24    25    2
     8    24    26   am
     9    26    28    1
    10    28    39    1
    11    39    40    1
    12    40    41   ar
    13    41    42   ar
    14    42    43   ar
    15    43    44   ar
    16    44    45   ar
    17    45    46   ar
    18    46    47   ar
    19    47    48   ar
    20    28    29    1
    21    29    30    2
    22    29    31   am
    23    31    33    1
    24    33    34   ar
    25    34    35   ar
    26    35    36   ar
    27    36    37   ar
    28    37    38   ar
    29     3     4   ar
    30     4     5    1
    31     4     6   ar
    32     6     7   ar
    33     7     8    1
    34     8     9    1
    35     9    10    1
    36    10    11    1
    37    11    14    1
    38    14    15   ar
    39    15    16   ar
    40    16    17   ar
    41    17    20    1
    42    20    21    1
    43    20    22    1
    44    20    23    1
    45    17    18   ar
    46    18    19   ar
    47    11    12    1
    48    12    13    1
    49     7     1   ar
    50    13     8    1
    51    48    40   ar
    52    38    33   ar
    53    19    14   ar
    54    48    43   ar
    55    26    27    1
    56    42    49    1
    57    31    32    1
