@<TRIPOS>MOLECULE
*****
 45 50 0 0 0
SMALL
GASTEIGER

@<TRIPOS>ATOM
      1 C          13.6367   79.2368   25.1382 C.3     1  UNL1        0.0325
      2 C          13.0005   80.5898   24.9701 C.ar    1  UNL1       -0.0041
      3 C          13.7886   81.6862   24.5885 C.ar    1  UNL1        0.0313
      4 C          13.2007   82.9503   24.4320 C.ar    1  UNL1        0.1315
      5 N          11.8636   83.0928   24.6381 N.ar    1  UNL1       -0.2279
      6 C          11.0728   82.0534   25.0091 C.ar    1  UNL1        0.1146
      7 C          11.6178   80.7714   25.1794 C.ar    1  UNL1        0.0661
      8 N          13.9816   84.0871   24.0182 N.pl3   1  UNL1       -0.2933
      9 C          13.8831   85.3380   24.7850 C.3     1  UNL1        0.0923
     10 C          14.5210   86.5157   24.0308 C.3     1  UNL1        0.0252
     11 C          14.2229   86.3998   22.5244 C.3     1  UNL1        0.0472
     12 C          14.8626   85.1154   21.9368 C.3     1  UNL1        0.0252
     13 C          14.9970   83.9735   22.9618 C.3     1  UNL1        0.0923
     14 C          14.6714   87.6694   21.7746 C.3     1  UNL1        0.2054
     15 O          15.9945   87.5122   21.2548 O.3     1  UNL1       -0.4755
     16 C          17.1476   88.1892   21.6852 C.ar    1  UNL1        0.1388
     17 C          18.0313   88.8376   20.8020 C.ar    1  UNL1        0.0369
     18 C          19.1601   89.4954   21.2948 C.ar    1  UNL1        0.0033
     19 C          19.4264   89.5075   22.6652 C.ar    1  UNL1        0.0066
     20 C          18.5647   88.8525   23.5614 C.ar    1  UNL1        0.0785
     21 C          17.4302   88.1923   23.0573 C.ar    1  UNL1        0.0433
     22 C          18.8433   88.8558   25.0147 C.2     1  UNL1        0.3381
     23 O          18.0657   88.2691   25.8153 O.2     1  UNL1       -0.2451
     24 O          19.9687   89.5076   25.5125 O.3     1  UNL1       -0.4771
     25 H          20.1685   89.5157   26.5056 H       1  UNL1        0.2954
     26 N          10.7921   79.6765   25.6134 N.am    1  UNL1       -0.2769
     27 C           9.6640   79.1889   24.8669 C.2     1  UNL1        0.2839
     28 O           9.3247   79.7483   23.7898 O.2     1  UNL1       -0.2665
     29 H          11.0360   79.2175   26.5171 H       1  UNL1        0.1553
     30 C           8.8613   78.0516   25.3494 C.ar    1  UNL1        0.1946
     31 O           8.7308   76.9355   24.6539 O.2     1  UNL1       -0.4492
     32 C           7.9592   76.1239   25.3350 C.ar    1  UNL1        0.1452
     33 C           7.5506   74.8444   24.9752 C.ar    1  UNL1        0.0375
     34 C           6.7155   74.1442   25.8635 C.ar    1  UNL1        0.0031
     35 C           6.3041   74.7296   27.0918 C.ar    1  UNL1        0.0002
     36 C           6.7450   76.0341   27.4201 C.ar    1  UNL1        0.0028
     37 C           7.5711   76.6993   26.5140 C.ar    1  UNL1        0.0337
     38 C           8.1571   77.9483   26.5558 C.ar    1  UNL1        0.0202
     39 C           8.0765   78.9366   27.6795 C.3     1  UNL1        0.0345
     40 C           5.4218   73.9808   28.0224 C.ar    1  UNL1        0.0000
     41 C           5.1756   72.6084   27.8271 C.ar    1  UNL1        0.0000
     42 C           4.3435   71.9061   28.7044 C.ar    1  UNL1        0.0000
     43 C           3.7495   72.5632   29.7843 C.ar    1  UNL1        0.0000
     44 C           3.9860   73.9242   29.9890 C.ar    1  UNL1        0.0000
     45 C           4.8165   74.6317   29.1144 C.ar    1  UNL1        0.0000
@<TRIPOS>BOND
     1     1     2    1
     2     2     3   ar
     3     3     4   ar
     4     4     8    1
     5     8     9    1
     6     9    10    1
     7    10    11    1
     8    11    14    1
     9    14    15    1
    10    15    16    1
    11    16    17   ar
    12    17    18   ar
    13    18    19   ar
    14    19    20   ar
    15    20    22    1
    16    22    23    2
    17    22    24    1
    18    20    21   ar
    19    11    12    1
    20    12    13    1
    21     4     5   ar
    22     5     6   ar
    23     6     7   ar
    24     7    26    1
    25    26    27   am
    26    27    28    2
    27    27    30    1
    28    30    31   ar
    29    31    32   ar
    30    32    33   ar
    31    33    34   ar
    32    34    35   ar
    33    35    40    1
    34    40    41   ar
    35    41    42   ar
    36    42    43   ar
    37    43    44   ar
    38    44    45   ar
    39    35    36   ar
    40    36    37   ar
    41    37    38   ar
    42    38    39    1
    43     7     2   ar
    44    38    30   ar
    45    13     8    1
    46    37    32   ar
    47    21    16   ar
    48    45    40   ar
    49    24    25    1
    50    26    29    1
@<TRIPOS>MOLECULE
*****
 45 50 0 0 0
SMALL
GASTEIGER

@<TRIPOS>ATOM
      1 C          13.6643   79.1846   25.1575 C.3     1  UNL1        0.0325
      2 C          13.0335   80.5347   24.9507 C.ar    1  UNL1       -0.0041
      3 C          13.8277   81.6191   24.5483 C.ar    1  UNL1        0.0313
      4 C          13.2448   82.8805   24.3556 C.ar    1  UNL1        0.1315
      5 N          11.9066   83.0317   24.5474 N.ar    1  UNL1       -0.2279
      6 C          11.1098   82.0041   24.9378 C.ar    1  UNL1        0.1146
      7 C          11.6497   80.7252   25.1444 C.ar    1  UNL1        0.0661
      8 N          14.0323   84.0045   23.9200 N.pl3   1  UNL1       -0.2933
      9 C          13.8091   85.3172   24.5439 C.3     1  UNL1        0.0923
     10 C          14.4919   86.4437   23.7517 C.3     1  UNL1        0.0252
     11 C          14.3704   86.1733   22.2405 C.3     1  UNL1        0.0472
     12 C          15.1118   84.8668   21.8566 C.3     1  UNL1        0.0252
     13 C          15.1640   83.8336   22.9980 C.3     1  UNL1        0.0923
     14 C          14.8619   87.3837   21.4229 C.3     1  UNL1        0.2054
     15 O          13.9501   87.6856   20.3632 O.3     1  UNL1       -0.4755
     16 C          14.1172   87.3761   19.0032 C.ar    1  UNL1        0.1388
     17 C          14.0147   88.3369   17.9796 C.ar    1  UNL1        0.0369
     18 C          14.1941   87.9642   16.6459 C.ar    1  UNL1        0.0033
     19 C          14.4670   86.6354   16.3162 C.ar    1  UNL1        0.0066
     20 C          14.5575   85.6587   17.3224 C.ar    1  UNL1        0.0785
     21 C          14.3755   86.0419   18.6630 C.ar    1  UNL1        0.0433
     22 C          14.8405   84.2471   16.9806 C.2     1  UNL1        0.3381
     23 O          15.9397   83.7200   17.3028 O.2     1  UNL1       -0.2451
     24 O          13.8940   83.4863   16.2990 O.3     1  UNL1       -0.4771
     25 H          14.0778   82.5191   16.0602 H       1  UNL1        0.2954
     26 N          10.8173   79.6438   25.5989 N.am    1  UNL1       -0.2769
     27 C           9.6718   79.1652   24.8735 C.2     1  UNL1        0.2839
     28 O           9.3227   79.7213   23.7978 O.2     1  UNL1       -0.2665
     29 H          11.0696   79.1880   26.5020 H       1  UNL1        0.1553
     30 C           8.8626   78.0413   25.3764 C.ar    1  UNL1        0.1946
     31 O           8.7379   76.9080   24.7082 O.2     1  UNL1       -0.4492
     32 C           7.9583   76.1148   25.4017 C.ar    1  UNL1        0.1452
     33 C           7.5517   74.8270   25.0704 C.ar    1  UNL1        0.0375
     34 C           6.7066   74.1506   25.9675 C.ar    1  UNL1        0.0031
     35 C           6.2834   74.7674   27.1762 C.ar    1  UNL1        0.0002
     36 C           6.7225   76.0794   27.4757 C.ar    1  UNL1        0.0028
     37 C           7.5587   76.7205   26.5616 C.ar    1  UNL1        0.0337
     38 C           8.1460   77.9696   26.5777 C.ar    1  UNL1        0.0202
     39 C           8.0550   78.9862   27.6750 C.3     1  UNL1        0.0345
     40 C           5.3905   74.0435   28.1164 C.ar    1  UNL1        0.0000
     41 C           5.0667   72.6908   27.8981 C.ar    1  UNL1        0.0000
     42 C           4.2249   72.0120   28.7845 C.ar    1  UNL1        0.0000
     43 C           3.6983   72.6730   29.8964 C.ar    1  UNL1        0.0000
     44 C           4.0120   74.0146   30.1241 C.ar    1  UNL1        0.0000
     45 C           4.8526   74.6987   29.2406 C.ar    1  UNL1        0.0000
@<TRIPOS>BOND
     1     1     2    1
     2     2     3   ar
     3     3     4   ar
     4     4     8    1
     5     8     9    1
     6     9    10    1
     7    10    11    1
     8    11    14    1
     9    14    15    1
    10    15    16    1
    11    16    17   ar
    12    17    18   ar
    13    18    19   ar
    14    19    20   ar
    15    20    22    1
    16    22    23    2
    17    22    24    1
    18    20    21   ar
    19    11    12    1
    20    12    13    1
    21     4     5   ar
    22     5     6   ar
    23     6     7   ar
    24     7    26    1
    25    26    27   am
    26    27    28    2
    27    27    30    1
    28    30    31   ar
    29    31    32   ar
    30    32    33   ar
    31    33    34   ar
    32    34    35   ar
    33    35    40    1
    34    40    41   ar
    35    41    42   ar
    36    42    43   ar
    37    43    44   ar
    38    44    45   ar
    39    35    36   ar
    40    36    37   ar
    41    37    38   ar
    42    38    39    1
    43     7     2   ar
    44    38    30   ar
    45    13     8    1
    46    37    32   ar
    47    21    16   ar
    48    45    40   ar
    49    24    25    1
    50    26    29    1
@<TRIPOS>MOLECULE
*****
 45 50 0 0 0
SMALL
GASTEIGER

@<TRIPOS>ATOM
      1 C          13.6239   79.2892   25.0727 C.3     1  UNL1        0.0325
      2 C          13.0099   80.6597   24.9807 C.ar    1  UNL1       -0.0041
      3 C          13.8047   81.7541   24.6078 C.ar    1  UNL1        0.0313
      4 C          13.2376   83.0344   24.5222 C.ar    1  UNL1        0.1315
      5 N          11.9131   83.1950   24.7879 N.ar    1  UNL1       -0.2279
      6 C          11.1163   82.1579   25.1524 C.ar    1  UNL1        0.1146
      7 C          11.6408   80.8600   25.2530 C.ar    1  UNL1        0.0661
      8 N          14.0248   84.1707   24.1190 N.pl3   1  UNL1       -0.2933
      9 C          14.0767   85.3503   24.9953 C.3     1  UNL1        0.0923
     10 C          14.6861   86.5639   24.2751 C.3     1  UNL1        0.0252
     11 C          14.2166   86.5966   22.8089 C.3     1  UNL1        0.0472
     12 C          14.7201   85.3451   22.0445 C.3     1  UNL1        0.0252
     13 C          14.9090   84.1108   22.9466 C.3     1  UNL1        0.0923
     14 C          14.6434   87.9090   22.1227 C.3     1  UNL1        0.2054
     15 O          14.6981   87.7461   20.7030 O.3     1  UNL1       -0.4755
     16 C          13.7414   88.1868   19.7735 C.ar    1  UNL1        0.1388
     17 C          12.4239   88.5288   20.1323 C.ar    1  UNL1        0.0369
     18 C          11.5212   88.9627   19.1594 C.ar    1  UNL1        0.0033
     19 C          11.9145   89.0518   17.8229 C.ar    1  UNL1        0.0066
     20 C          13.2207   88.6998   17.4425 C.ar    1  UNL1        0.0785
     21 C          14.1237   88.2638   18.4280 C.ar    1  UNL1        0.0433
     22 C          13.6435   88.7859   16.0270 C.2     1  UNL1        0.3381
     23 O          12.7847   88.8783   15.1084 O.2     1  UNL1       -0.2451
     24 O          14.9959   88.7660   15.6957 O.3     1  UNL1       -0.4771
     25 H          15.2960   88.8245   14.7299 H       1  UNL1        0.2954
     26 N          10.8104   79.7658   25.6798 N.am    1  UNL1       -0.2769
     27 C           9.7121   79.2542   24.9056 C.2     1  UNL1        0.2839
     28 O           9.4041   79.7905   23.8075 O.2     1  UNL1       -0.2665
     29 H          11.0280   79.3258   26.5995 H       1  UNL1        0.1553
     30 C           8.9035   78.1187   25.3823 C.ar    1  UNL1        0.1946
     31 O           8.7811   77.0002   24.6893 O.2     1  UNL1       -0.4492
     32 C           8.0014   76.1910   25.3639 C.ar    1  UNL1        0.1452
     33 C           7.5969   74.9103   25.0037 C.ar    1  UNL1        0.0375
     34 C           6.7511   74.2134   25.8843 C.ar    1  UNL1        0.0031
     35 C           6.3252   74.8030   27.1056 C.ar    1  UNL1        0.0002
     36 C           6.7622   76.1087   27.4346 C.ar    1  UNL1        0.0028
     37 C           7.5992   76.7706   26.5361 C.ar    1  UNL1        0.0337
     38 C           8.1849   78.0197   26.5806 C.ar    1  UNL1        0.0202
     39 C           8.0909   79.0119   27.6998 C.3     1  UNL1        0.0345
     40 C           5.4317   74.0576   28.0282 C.ar    1  UNL1        0.0000
     41 C           5.1502   72.6958   27.8076 C.ar    1  UNL1        0.0000
     42 C           4.3077   71.9967   28.6774 C.ar    1  UNL1        0.0000
     43 C           3.7382   72.6464   29.7748 C.ar    1  UNL1        0.0000
     44 C           4.0097   73.9968   30.0046 C.ar    1  UNL1        0.0000
     45 C           4.8508   74.7011   29.1377 C.ar    1  UNL1        0.0000
@<TRIPOS>BOND
     1     1     2    1
     2     2     3   ar
     3     3     4   ar
     4     4     8    1
     5     8     9    1
     6     9    10    1
     7    10    11    1
     8    11    14    1
     9    14    15    1
    10    15    16    1
    11    16    17   ar
    12    17    18   ar
    13    18    19   ar
    14    19    20   ar
    15    20    22    1
    16    22    23    2
    17    22    24    1
    18    20    21   ar
    19    11    12    1
    20    12    13    1
    21     4     5   ar
    22     5     6   ar
    23     6     7   ar
    24     7    26    1
    25    26    27   am
    26    27    28    2
    27    27    30    1
    28    30    31   ar
    29    31    32   ar
    30    32    33   ar
    31    33    34   ar
    32    34    35   ar
    33    35    40    1
    34    40    41   ar
    35    41    42   ar
    36    42    43   ar
    37    43    44   ar
    38    44    45   ar
    39    35    36   ar
    40    36    37   ar
    41    37    38   ar
    42    38    39    1
    43     7     2   ar
    44    38    30   ar
    45    13     8    1
    46    37    32   ar
    47    21    16   ar
    48    45    40   ar
    49    24    25    1
    50    26    29    1
@<TRIPOS>MOLECULE
*****
 45 50 0 0 0
SMALL
GASTEIGER

@<TRIPOS>ATOM
      1 C          10.2668   80.6715   23.4939 C.3     1  UNL1        0.0325
      2 C          11.2688   81.3639   24.3772 C.ar    1  UNL1       -0.0041
      3 C          12.1056   82.3524   23.8375 C.ar    1  UNL1        0.0313
      4 C          13.0427   83.0000   24.6563 C.ar    1  UNL1        0.1315
      5 N          13.1164   82.6696   25.9739 N.ar    1  UNL1       -0.2279
      6 C          12.3227   81.7173   26.5276 C.ar    1  UNL1        0.1146
      7 C          11.3723   81.0421   25.7463 C.ar    1  UNL1        0.0661
      8 N          13.8972   84.0345   24.1337 N.pl3   1  UNL1       -0.2933
      9 C          13.8229   85.3831   24.7151 C.3     1  UNL1        0.0923
     10 C          14.5530   86.4166   23.8423 C.3     1  UNL1        0.0252
     11 C          14.3226   86.1041   22.3521 C.3     1  UNL1        0.0472
     12 C          14.9266   84.7248   21.9820 C.3     1  UNL1        0.0252
     13 C          14.9556   83.7325   23.1598 C.3     1  UNL1        0.0923
     14 C          14.8682   87.2369   21.4608 C.3     1  UNL1        0.2054
     15 O          13.9315   87.5711   20.4330 O.3     1  UNL1       -0.4755
     16 C          14.0913   87.3553   19.0542 C.ar    1  UNL1        0.1388
     17 C          13.8867   88.3617   18.0914 C.ar    1  UNL1        0.0369
     18 C          14.0646   88.0824   16.7349 C.ar    1  UNL1        0.0033
     19 C          14.4372   86.8020   16.3219 C.ar    1  UNL1        0.0066
     20 C          14.6307   85.7799   17.2667 C.ar    1  UNL1        0.0785
     21 C          14.4496   86.0689   18.6307 C.ar    1  UNL1        0.0433
     22 C          15.0200   84.4186   16.8365 C.2     1  UNL1        0.3381
     23 O          14.2427   83.4433   17.0224 O.2     1  UNL1       -0.2451
     24 O          16.2502   84.2015   16.2212 O.3     1  UNL1       -0.4771
     25 H          16.5263   83.2736   15.9229 H       1  UNL1        0.2954
     26 N          10.5589   80.0030   26.3186 N.am    1  UNL1       -0.2769
     27 C          10.9545   78.6214   26.3667 C.2     1  UNL1        0.2839
     28 O          12.0469   78.2548   25.8566 O.2     1  UNL1       -0.2665
     29 H           9.6370   80.2785   26.7200 H       1  UNL1        0.1553
     30 C          10.0895   77.5990   26.9808 C.ar    1  UNL1        0.1946
     31 O          10.5368   76.7507   27.8900 O.2     1  UNL1       -0.4492
     32 C           9.5433   75.9687   28.2354 C.ar    1  UNL1        0.1452
     33 C           9.5673   74.9275   29.1567 C.ar    1  UNL1        0.0375
     34 C           8.3766   74.2126   29.3755 C.ar    1  UNL1        0.0031
     35 C           7.1860   74.5477   28.6749 C.ar    1  UNL1        0.0002
     36 C           7.2051   75.6165   27.7469 C.ar    1  UNL1        0.0028
     37 C           8.4046   76.3021   27.5542 C.ar    1  UNL1        0.0337
     38 C           8.7282   77.3705   26.7424 C.ar    1  UNL1        0.0202
     39 C           7.7952   78.1280   25.8471 C.3     1  UNL1        0.0345
     40 C           5.9340   73.7857   28.9140 C.ar    1  UNL1        0.0000
     41 C           5.0515   74.1637   29.9439 C.ar    1  UNL1        0.0000
     42 C           3.8739   73.4436   30.1673 C.ar    1  UNL1        0.0000
     43 C           3.5636   72.3415   29.3676 C.ar    1  UNL1        0.0000
     44 C           4.4306   71.9566   28.3427 C.ar    1  UNL1        0.0000
     45 C           5.6100   72.6724   28.1152 C.ar    1  UNL1        0.0000
@<TRIPOS>BOND
     1     1     2    1
     2     2     3   ar
     3     3     4   ar
     4     4     8    1
     5     8     9    1
     6     9    10    1
     7    10    11    1
     8    11    14    1
     9    14    15    1
    10    15    16    1
    11    16    17   ar
    12    17    18   ar
    13    18    19   ar
    14    19    20   ar
    15    20    22    1
    16    22    23    2
    17    22    24    1
    18    20    21   ar
    19    11    12    1
    20    12    13    1
    21     4     5   ar
    22     5     6   ar
    23     6     7   ar
    24     7    26    1
    25    26    27   am
    26    27    28    2
    27    27    30    1
    28    30    31   ar
    29    31    32   ar
    30    32    33   ar
    31    33    34   ar
    32    34    35   ar
    33    35    40    1
    34    40    41   ar
    35    41    42   ar
    36    42    43   ar
    37    43    44   ar
    38    44    45   ar
    39    35    36   ar
    40    36    37   ar
    41    37    38   ar
    42    38    39    1
    43     7     2   ar
    44    38    30   ar
    45    13     8    1
    46    37    32   ar
    47    21    16   ar
    48    45    40   ar
    49    24    25    1
    50    26    29    1
@<TRIPOS>MOLECULE
*****
 45 50 0 0 0
SMALL
GASTEIGER

@<TRIPOS>ATOM
      1 C           9.5475   79.5887   26.5178 C.3     1  UNL1        0.0325
      2 C           9.4243   79.0802   25.1073 C.ar    1  UNL1       -0.0041
      3 C           8.7893   77.8530   24.8634 C.ar    1  UNL1        0.0313
      4 C           8.6733   77.3735   23.5501 C.ar    1  UNL1        0.1315
      5 N           9.1670   78.1174   22.5237 N.ar    1  UNL1       -0.2279
      6 C           9.7879   79.3079   22.7248 C.ar    1  UNL1        0.1146
      7 C           9.9285   79.8258   24.0216 C.ar    1  UNL1        0.0661
      8 N           8.0056   76.1290   23.2696 N.pl3   1  UNL1       -0.2933
      9 C           8.4922   75.2913   22.1633 C.3     1  UNL1        0.0923
     10 C           7.4873   74.1838   21.8077 C.3     1  UNL1        0.0252
     11 C           6.0490   74.7234   21.9150 C.3     1  UNL1        0.0472
     12 C           5.7289   75.1430   23.3730 C.3     1  UNL1        0.0252
     13 C           6.9684   75.5988   24.1658 C.3     1  UNL1        0.0923
     14 C           5.0344   73.7008   21.3671 C.3     1  UNL1        0.2054
     15 O           4.2622   74.2692   20.3061 O.3     1  UNL1       -0.4755
     16 C           3.7704   75.5835   20.2414 C.ar    1  UNL1        0.1388
     17 C           4.1648   76.5023   19.2506 C.ar    1  UNL1        0.0369
     18 C           3.6362   77.7947   19.2408 C.ar    1  UNL1        0.0033
     19 C           2.7203   78.1888   20.2179 C.ar    1  UNL1        0.0066
     20 C           2.3262   77.2911   21.2245 C.ar    1  UNL1        0.0785
     21 C           2.8631   75.9916   21.2276 C.ar    1  UNL1        0.0433
     22 C           1.3603   77.7031   22.2672 C.2     1  UNL1        0.3381
     23 O           1.6455   77.5743   23.4886 O.2     1  UNL1       -0.2451
     24 O           0.1256   78.2381   21.9086 O.3     1  UNL1       -0.4771
     25 H          -0.5426   78.5233   22.6145 H       1  UNL1        0.2954
     26 N          10.6228   81.0658   24.2434 N.am    1  UNL1       -0.2769
     27 C          12.0334   81.1488   24.5095 C.2     1  UNL1        0.2839
     28 O          12.7262   80.0999   24.5996 O.2     1  UNL1       -0.2665
     29 H          10.0640   81.9451   24.2034 H       1  UNL1        0.1553
     30 C          12.6985   82.4477   24.7125 C.ar    1  UNL1        0.1946
     31 O          12.9280   83.2855   23.7166 O.2     1  UNL1       -0.4492
     32 C          13.5337   84.3391   24.2074 C.ar    1  UNL1        0.1452
     33 C          13.9679   85.4642   23.5152 C.ar    1  UNL1        0.0375
     34 C          14.5997   86.4855   24.2461 C.ar    1  UNL1        0.0031
     35 C          14.7863   86.3684   25.6504 C.ar    1  UNL1        0.0002
     36 C          14.3272   85.2067   26.3164 C.ar    1  UNL1        0.0028
     37 C          13.7066   84.2133   25.5587 C.ar    1  UNL1        0.0337
     38 C          13.1577   82.9982   25.9159 C.ar    1  UNL1        0.0202
     39 C          13.0507   82.4382   27.3018 C.3     1  UNL1        0.0345
     40 C          15.4551   87.4535   26.4124 C.ar    1  UNL1        0.0000
     41 C          16.5169   88.1803   25.8407 C.ar    1  UNL1        0.0000
     42 C          17.1454   89.2007   26.5610 C.ar    1  UNL1        0.0000
     43 C          16.7226   89.5075   27.8563 C.ar    1  UNL1        0.0000
     44 C          15.6705   88.7940   28.4345 C.ar    1  UNL1        0.0000
     45 C          15.0388   87.7720   27.7192 C.ar    1  UNL1        0.0000
@<TRIPOS>BOND
     1     1     2    1
     2     2     3   ar
     3     3     4   ar
     4     4     8    1
     5     8     9    1
     6     9    10    1
     7    10    11    1
     8    11    14    1
     9    14    15    1
    10    15    16    1
    11    16    17   ar
    12    17    18   ar
    13    18    19   ar
    14    19    20   ar
    15    20    22    1
    16    22    23    2
    17    22    24    1
    18    20    21   ar
    19    11    12    1
    20    12    13    1
    21     4     5   ar
    22     5     6   ar
    23     6     7   ar
    24     7    26    1
    25    26    27   am
    26    27    28    2
    27    27    30    1
    28    30    31   ar
    29    31    32   ar
    30    32    33   ar
    31    33    34   ar
    32    34    35   ar
    33    35    40    1
    34    40    41   ar
    35    41    42   ar
    36    42    43   ar
    37    43    44   ar
    38    44    45   ar
    39    35    36   ar
    40    36    37   ar
    41    37    38   ar
    42    38    39    1
    43     7     2   ar
    44    38    30   ar
    45    13     8    1
    46    37    32   ar
    47    21    16   ar
    48    45    40   ar
    49    24    25    1
    50    26    29    1
@<TRIPOS>MOLECULE
*****
 45 50 0 0 0
SMALL
GASTEIGER

@<TRIPOS>ATOM
      1 C          13.2530   79.0182   25.1281 C.3     1  UNL1        0.0325
      2 C          12.7246   80.4241   25.0398 C.ar    1  UNL1       -0.0041
      3 C          13.5525   81.4491   24.5574 C.ar    1  UNL1        0.0313
      4 C          13.0652   82.7621   24.4746 C.ar    1  UNL1        0.1315
      5 N          11.7838   83.0216   24.8504 N.ar    1  UNL1       -0.2279
      6 C          10.9570   82.0537   25.3224 C.ar    1  UNL1        0.1146
      7 C          11.4020   80.7266   25.4245 C.ar    1  UNL1        0.0661
      8 N          13.8856   83.8283   23.9612 N.pl3   1  UNL1       -0.2933
      9 C          13.5879   85.2126   24.3582 C.3     1  UNL1        0.0923
     10 C          14.3416   86.2268   23.4829 C.3     1  UNL1        0.0252
     11 C          14.3819   85.7358   22.0238 C.3     1  UNL1        0.0472
     12 C          15.1696   84.4047   21.9155 C.3     1  UNL1        0.0252
     13 C          15.1093   83.5508   23.1961 C.3     1  UNL1        0.0923
     14 C          14.9475   86.8249   21.0914 C.3     1  UNL1        0.2054
     15 O          14.1619   86.9334   19.9013 O.3     1  UNL1       -0.4755
     16 C          14.3740   86.2468   18.6942 C.ar    1  UNL1        0.1388
     17 C          14.5806   84.8559   18.6288 C.ar    1  UNL1        0.0369
     18 C          14.7836   84.2333   17.3956 C.ar    1  UNL1        0.0033
     19 C          14.7926   84.9853   16.2195 C.ar    1  UNL1        0.0066
     20 C          14.6039   86.3770   16.2656 C.ar    1  UNL1        0.0785
     21 C          14.4003   86.9967   17.5112 C.ar    1  UNL1        0.0433
     22 C          14.6180   87.1819   15.0240 C.2     1  UNL1        0.3381
     23 O          14.4240   86.6337   13.9052 O.2     1  UNL1       -0.2451
     24 O          14.8456   88.5547   15.0796 O.3     1  UNL1       -0.4771
     25 H          14.8573   89.1148   14.2356 H       1  UNL1        0.2954
     26 N          10.5437   79.7060   25.9637 N.am    1  UNL1       -0.2769
     27 C           9.9175   79.7964   27.2549 C.2     1  UNL1        0.2839
     28 O          10.1379   80.7883   28.0003 O.2     1  UNL1       -0.2665
     29 H          10.3710   78.8619   25.3767 H       1  UNL1        0.1553
     30 C           9.0324   78.7287   27.7522 C.ar    1  UNL1        0.1946
     31 O           8.6288   78.6761   29.0094 O.2     1  UNL1       -0.4492
     32 C           7.8662   77.6187   29.1442 C.ar    1  UNL1        0.1452
     33 C           7.2336   77.1738   30.2999 C.ar    1  UNL1        0.0375
     34 C           6.4562   76.0052   30.2183 C.ar    1  UNL1        0.0031
     35 C           6.3226   75.3029   28.9897 C.ar    1  UNL1        0.0002
     36 C           6.9822   75.7917   27.8364 C.ar    1  UNL1        0.0028
     37 C           7.7461   76.9528   27.9551 C.ar    1  UNL1        0.0337
     38 C           8.4826   77.6628   27.0285 C.ar    1  UNL1        0.0202
     39 C           8.6100   77.3605   25.5662 C.3     1  UNL1        0.0345
     40 C           5.4990   74.0694   28.9152 C.ar    1  UNL1        0.0000
     41 C           5.7920   73.0690   27.9688 C.ar    1  UNL1        0.0000
     42 C           5.0141   71.9091   27.9003 C.ar    1  UNL1        0.0000
     43 C           3.9381   71.7341   28.7733 C.ar    1  UNL1        0.0000
     44 C           3.6373   72.7189   29.7167 C.ar    1  UNL1        0.0000
     45 C           4.4112   73.8812   29.7891 C.ar    1  UNL1        0.0000
@<TRIPOS>BOND
     1     1     2    1
     2     2     3   ar
     3     3     4   ar
     4     4     8    1
     5     8     9    1
     6     9    10    1
     7    10    11    1
     8    11    14    1
     9    14    15    1
    10    15    16    1
    11    16    17   ar
    12    17    18   ar
    13    18    19   ar
    14    19    20   ar
    15    20    22    1
    16    22    23    2
    17    22    24    1
    18    20    21   ar
    19    11    12    1
    20    12    13    1
    21     4     5   ar
    22     5     6   ar
    23     6     7   ar
    24     7    26    1
    25    26    27   am
    26    27    28    2
    27    27    30    1
    28    30    31   ar
    29    31    32   ar
    30    32    33   ar
    31    33    34   ar
    32    34    35   ar
    33    35    40    1
    34    40    41   ar
    35    41    42   ar
    36    42    43   ar
    37    43    44   ar
    38    44    45   ar
    39    35    36   ar
    40    36    37   ar
    41    37    38   ar
    42    38    39    1
    43     7     2   ar
    44    38    30   ar
    45    13     8    1
    46    37    32   ar
    47    21    16   ar
    48    45    40   ar
    49    24    25    1
    50    26    29    1
@<TRIPOS>MOLECULE
*****
 45 50 0 0 0
SMALL
GASTEIGER

@<TRIPOS>ATOM
      1 C           9.6987   79.4599   22.5738 C.3     1  UNL1        0.0325
      2 C           9.2726   79.1095   23.9735 C.ar    1  UNL1       -0.0041
      3 C           8.4760   77.9758   24.1947 C.ar    1  UNL1        0.0313
      4 C           8.0745   77.6455   25.4977 C.ar    1  UNL1        0.1315
      5 N           8.4790   78.4250   26.5367 N.ar    1  UNL1       -0.2279
      6 C           9.2486   79.5290   26.3575 C.ar    1  UNL1        0.1146
      7 C           9.6723   79.8988   25.0717 C.ar    1  UNL1        0.0661
      8 N           7.2770   76.4746   25.7554 N.pl3   1  UNL1       -0.2933
      9 C           5.8113   76.5928   25.7450 C.3     1  UNL1        0.0923
     10 C           5.1389   75.3473   26.3446 C.3     1  UNL1        0.0252
     11 C           5.9560   74.8339   27.5447 C.3     1  UNL1        0.0472
     12 C           7.3695   74.3844   27.0928 C.3     1  UNL1        0.0252
     13 C           7.8866   75.1411   25.8547 C.3     1  UNL1        0.0923
     14 C           5.1995   73.7162   28.2887 C.3     1  UNL1        0.2054
     15 O           4.6530   74.2029   29.5175 O.3     1  UNL1       -0.4755
     16 C           4.6494   75.5358   29.9608 C.ar    1  UNL1        0.1388
     17 C           3.4724   76.2261   30.3068 C.ar    1  UNL1        0.0369
     18 C           3.5376   77.5509   30.7430 C.ar    1  UNL1        0.0033
     19 C           4.7682   78.2042   30.8306 C.ar    1  UNL1        0.0066
     20 C           5.9528   77.5372   30.4746 C.ar    1  UNL1        0.0785
     21 C           5.8788   76.2033   30.0362 C.ar    1  UNL1        0.0433
     22 C           7.2604   78.2247   30.5591 C.2     1  UNL1        0.3381
     23 O           7.7898   78.4547   31.6801 O.2     1  UNL1       -0.2451
     24 O           7.9198   78.6243   29.3994 O.3     1  UNL1       -0.4771
     25 H           8.8153   79.0955   29.4462 H       1  UNL1        0.2954
     26 N          10.4521   81.0909   24.8724 N.am    1  UNL1       -0.2769
     27 C          11.8820   81.1371   25.0164 C.2     1  UNL1        0.2839
     28 O          12.5185   80.1095   25.3726 O.2     1  UNL1       -0.2665
     29 H           9.9430   81.9610   24.6063 H       1  UNL1        0.1553
     30 C          12.6345   82.3821   24.7833 C.ar    1  UNL1        0.1946
     31 O          12.6523   82.9856   23.6078 O.2     1  UNL1       -0.4492
     32 C          13.4062   84.0525   23.7136 C.ar    1  UNL1        0.1452
     33 C          13.7093   84.9761   22.7192 C.ar    1  UNL1        0.0375
     34 C          14.5456   86.0555   23.0541 C.ar    1  UNL1        0.0031
     35 C          15.0630   86.1956   24.3707 C.ar    1  UNL1        0.0002
     36 C          14.7276   85.2335   25.3534 C.ar    1  UNL1        0.0028
     37 C          13.8971   84.1752   24.9848 C.ar    1  UNL1        0.0337
     38 C          13.3973   83.1096   25.7059 C.ar    1  UNL1        0.0202
     39 C          13.6056   82.8414   27.1655 C.3     1  UNL1        0.0345
     40 C          15.9455   87.3398   24.7131 C.ar    1  UNL1        0.0000
     41 C          15.4571   88.4169   25.4771 C.ar    1  UNL1        0.0000
     42 C          16.2901   89.4935   25.7971 C.ar    1  UNL1        0.0000
     43 C          17.6166   89.5074   25.3603 C.ar    1  UNL1        0.0000
     44 C          18.1131   88.4450   24.6020 C.ar    1  UNL1        0.0000
     45 C          17.2844   87.3663   24.2783 C.ar    1  UNL1        0.0000
@<TRIPOS>BOND
     1     1     2    1
     2     2     3   ar
     3     3     4   ar
     4     4     8    1
     5     8     9    1
     6     9    10    1
     7    10    11    1
     8    11    14    1
     9    14    15    1
    10    15    16    1
    11    16    17   ar
    12    17    18   ar
    13    18    19   ar
    14    19    20   ar
    15    20    22    1
    16    22    23    2
    17    22    24    1
    18    20    21   ar
    19    11    12    1
    20    12    13    1
    21     4     5   ar
    22     5     6   ar
    23     6     7   ar
    24     7    26    1
    25    26    27   am
    26    27    28    2
    27    27    30    1
    28    30    31   ar
    29    31    32   ar
    30    32    33   ar
    31    33    34   ar
    32    34    35   ar
    33    35    40    1
    34    40    41   ar
    35    41    42   ar
    36    42    43   ar
    37    43    44   ar
    38    44    45   ar
    39    35    36   ar
    40    36    37   ar
    41    37    38   ar
    42    38    39    1
    43     7     2   ar
    44    38    30   ar
    45    13     8    1
    46    37    32   ar
    47    21    16   ar
    48    45    40   ar
    49    24    25    1
    50    26    29    1
@<TRIPOS>MOLECULE
*****
 45 50 0 0 0
SMALL
GASTEIGER

@<TRIPOS>ATOM
      1 C          13.7720   79.4948   24.9857 C.3     1  UNL1        0.0325
      2 C          12.2933   79.6250   24.7410 C.ar    1  UNL1       -0.0041
      3 C          11.4501   78.5288   24.9776 C.ar    1  UNL1        0.0313
      4 C          10.0707   78.6443   24.7494 C.ar    1  UNL1        0.1315
      5 N           9.5649   79.8300   24.3145 N.ar    1  UNL1       -0.2279
      6 C          10.3527   80.9094   24.0747 C.ar    1  UNL1        0.1146
      7 C          11.7381   80.8393   24.2871 C.ar    1  UNL1        0.0661
      8 N           9.1799   77.5427   25.0067 N.pl3   1  UNL1       -0.2933
      9 C           7.7714   77.8225   25.3231 C.3     1  UNL1        0.0923
     10 C           7.0573   76.5779   25.8744 C.3     1  UNL1        0.0252
     11 C           8.0087   75.7880   26.7921 C.3     1  UNL1        0.0472
     12 C           9.2307   75.2647   25.9939 C.3     1  UNL1        0.0252
     13 C           9.6020   76.1516   24.7904 C.3     1  UNL1        0.0923
     14 C           7.2588   74.6544   27.5186 C.3     1  UNL1        0.2054
     15 O           7.5560   74.6629   28.9175 O.3     1  UNL1       -0.4755
     16 C           7.3371   75.7235   29.8121 C.ar    1  UNL1        0.1388
     17 C           6.2465   75.7646   30.7011 C.ar    1  UNL1        0.0369
     18 C           6.0871   76.8480   31.5675 C.ar    1  UNL1        0.0033
     19 C           7.0017   77.9026   31.5528 C.ar    1  UNL1        0.0066
     20 C           8.0881   77.8874   30.6617 C.ar    1  UNL1        0.0785
     21 C           8.2417   76.7930   29.7923 C.ar    1  UNL1        0.0433
     22 C           9.0586   79.0042   30.6359 C.2     1  UNL1        0.3381
     23 O           9.3349   79.5853   29.5515 O.2     1  UNL1       -0.2451
     24 O           9.6767   79.4247   31.8108 O.3     1  UNL1       -0.4771
     25 H          10.3424   80.1882   31.8041 H       1  UNL1        0.2954
     26 N          12.5818   81.9668   23.9940 N.am    1  UNL1       -0.2769
     27 C          12.8034   83.0517   24.9113 C.2     1  UNL1        0.2839
     28 O          12.2153   83.0722   26.0256 O.2     1  UNL1       -0.2665
     29 H          13.0554   81.9860   23.0654 H       1  UNL1        0.1553
     30 C          13.6922   84.1751   24.5669 C.ar    1  UNL1        0.1946
     31 O          13.6151   85.3466   25.1735 O.2     1  UNL1       -0.4492
     32 C          14.5219   86.1334   24.6478 C.ar    1  UNL1        0.1452
     33 C          14.7875   87.4576   24.9788 C.ar    1  UNL1        0.0375
     34 C          15.8140   88.1188   24.2819 C.ar    1  UNL1        0.0031
     35 C          16.5564   87.4503   23.2707 C.ar    1  UNL1        0.0002
     36 C          16.2547   86.1011   22.9665 C.ar    1  UNL1        0.0028
     37 C          15.2287   85.4778   23.6769 C.ar    1  UNL1        0.0337
     38 C          14.7195   84.1963   23.6149 C.ar    1  UNL1        0.0202
     39 C          15.2093   83.0809   22.7421 C.3     1  UNL1        0.0345
     40 C          17.6385   88.1586   22.5409 C.ar    1  UNL1        0.0000
     41 C          18.9497   88.1844   23.0534 C.ar    1  UNL1        0.0000
     42 C          19.9664   88.8531   22.3646 C.ar    1  UNL1        0.0000
     43 C          19.6875   89.5015   21.1594 C.ar    1  UNL1        0.0000
     44 C          18.3911   89.4831   20.6405 C.ar    1  UNL1        0.0000
     45 C          17.3704   88.8167   21.3254 C.ar    1  UNL1        0.0000
@<TRIPOS>BOND
     1     1     2    1
     2     2     3   ar
     3     3     4   ar
     4     4     8    1
     5     8     9    1
     6     9    10    1
     7    10    11    1
     8    11    14    1
     9    14    15    1
    10    15    16    1
    11    16    17   ar
    12    17    18   ar
    13    18    19   ar
    14    19    20   ar
    15    20    22    1
    16    22    23    2
    17    22    24    1
    18    20    21   ar
    19    11    12    1
    20    12    13    1
    21     4     5   ar
    22     5     6   ar
    23     6     7   ar
    24     7    26    1
    25    26    27   am
    26    27    28    2
    27    27    30    1
    28    30    31   ar
    29    31    32   ar
    30    32    33   ar
    31    33    34   ar
    32    34    35   ar
    33    35    40    1
    34    40    41   ar
    35    41    42   ar
    36    42    43   ar
    37    43    44   ar
    38    44    45   ar
    39    35    36   ar
    40    36    37   ar
    41    37    38   ar
    42    38    39    1
    43     7     2   ar
    44    38    30   ar
    45    13     8    1
    46    37    32   ar
    47    21    16   ar
    48    45    40   ar
    49    24    25    1
    50    26    29    1
@<TRIPOS>MOLECULE
*****
 45 50 0 0 0
SMALL
GASTEIGER

@<TRIPOS>ATOM
      1 C          10.2658   80.3618   22.9964 C.3     1  UNL1        0.0325
      2 C          10.0206   80.1773   24.4693 C.ar    1  UNL1       -0.0041
      3 C           9.3006   79.0605   24.9198 C.ar    1  UNL1        0.0313
      4 C           9.0677   78.8845   26.2920 C.ar    1  UNL1        0.1315
      5 N           9.5601   79.7965   27.1732 N.ar    1  UNL1       -0.2279
      6 C          10.2596   80.8884   26.7708 C.ar    1  UNL1        0.1146
      7 C          10.5149   81.1062   25.4081 C.ar    1  UNL1        0.0661
      8 N           8.3524   77.7354   26.7832 N.pl3   1  UNL1       -0.2933
      9 C           9.0931   76.4929   27.0476 C.3     1  UNL1        0.0923
     10 C           8.1441   75.3012   27.2529 C.3     1  UNL1        0.0252
     11 C           6.9499   75.4062   26.2864 C.3     1  UNL1        0.0472
     12 C           6.1144   76.6780   26.5844 C.3     1  UNL1        0.0252
     13 C           6.9427   77.8279   27.1881 C.3     1  UNL1        0.0923
     14 C           6.0945   74.1249   26.3260 C.3     1  UNL1        0.2054
     15 O           6.4511   73.2423   25.2586 O.3     1  UNL1       -0.4755
     16 C           6.9996   73.6092   24.0185 C.ar    1  UNL1        0.1388
     17 C           8.3159   74.0864   23.8728 C.ar    1  UNL1        0.0369
     18 C           8.8018   74.4323   22.6103 C.ar    1  UNL1        0.0033
     19 C           7.9843   74.3169   21.4846 C.ar    1  UNL1        0.0066
     20 C           6.6623   73.8575   21.6116 C.ar    1  UNL1        0.0785
     21 C           6.1803   73.5113   22.8863 C.ar    1  UNL1        0.0433
     22 C           5.7876   73.7380   20.4241 C.2     1  UNL1        0.3381
     23 O           4.5344   73.6932   20.5559 O.2     1  UNL1       -0.2451
     24 O           6.3411   73.6740   19.1479 O.3     1  UNL1       -0.4771
     25 H           5.7513   73.5922   18.3284 H       1  UNL1        0.2954
     26 N          11.2186   82.2833   24.9741 N.am    1  UNL1       -0.2769
     27 C          12.6431   82.3315   24.7849 C.2     1  UNL1        0.2839
     28 O          13.3528   81.3216   25.0392 O.2     1  UNL1       -0.2665
     29 H          10.6550   83.1401   24.7865 H       1  UNL1        0.1553
     30 C          13.3121   83.5597   24.3216 C.ar    1  UNL1        0.1946
     31 O          12.8107   84.7621   24.5432 O.2     1  UNL1       -0.4492
     32 C          13.6218   85.6421   24.0088 C.ar    1  UNL1        0.1452
     33 C          13.4804   87.0254   23.9973 C.ar    1  UNL1        0.0375
     34 C          14.4781   87.7853   23.3618 C.ar    1  UNL1        0.0031
     35 C          15.5965   87.1551   22.7515 C.ar    1  UNL1        0.0002
     36 C          15.7025   85.7439   22.7879 C.ar    1  UNL1        0.0028
     37 C          14.6931   85.0224   23.4254 C.ar    1  UNL1        0.0337
     38 C          14.5245   83.6676   23.6284 C.ar    1  UNL1        0.0202
     39 C          15.4710   82.5783   23.2238 C.3     1  UNL1        0.0345
     40 C          16.6443   87.9678   22.0830 C.ar    1  UNL1        0.0000
     41 C          16.3662   88.6453   20.8805 C.ar    1  UNL1        0.0000
     42 C          17.3552   89.4090   20.2527 C.ar    1  UNL1        0.0000
     43 C          18.6294   89.5057   20.8163 C.ar    1  UNL1        0.0000
     44 C          18.9178   88.8386   22.0088 C.ar    1  UNL1        0.0000
     45 C          17.9330   88.0728   22.6404 C.ar    1  UNL1        0.0000
@<TRIPOS>BOND
     1     1     2    1
     2     2     3   ar
     3     3     4   ar
     4     4     8    1
     5     8     9    1
     6     9    10    1
     7    10    11    1
     8    11    14    1
     9    14    15    1
    10    15    16    1
    11    16    17   ar
    12    17    18   ar
    13    18    19   ar
    14    19    20   ar
    15    20    22    1
    16    22    23    2
    17    22    24    1
    18    20    21   ar
    19    11    12    1
    20    12    13    1
    21     4     5   ar
    22     5     6   ar
    23     6     7   ar
    24     7    26    1
    25    26    27   am
    26    27    28    2
    27    27    30    1
    28    30    31   ar
    29    31    32   ar
    30    32    33   ar
    31    33    34   ar
    32    34    35   ar
    33    35    40    1
    34    40    41   ar
    35    41    42   ar
    36    42    43   ar
    37    43    44   ar
    38    44    45   ar
    39    35    36   ar
    40    36    37   ar
    41    37    38   ar
    42    38    39    1
    43     7     2   ar
    44    38    30   ar
    45    13     8    1
    46    37    32   ar
    47    21    16   ar
    48    45    40   ar
    49    24    25    1
    50    26    29    1
