@<TRIPOS>MOLECULE
*****
 43 49 0 0 0
SMALL
GASTEIGER

@<TRIPOS>ATOM
      1 C         -30.1903   49.5825  -11.1109 C.3     1  UNL1        0.0817
      2 C         -31.5839   50.0214  -10.6078 C.3     1  UNL1        0.0252
      3 C         -31.4158   50.4495   -9.1355 C.3     1  UNL1        0.0278
      4 C         -30.0200   50.0704   -8.8045 C.ar    1  UNL1       -0.0248
      5 C         -29.3966   50.1880   -7.5610 C.ar    1  UNL1       -0.0045
      6 C         -28.0451   49.8088   -7.4356 C.ar    1  UNL1       -0.0002
      7 C         -27.3532   49.3153   -8.5647 C.ar    1  UNL1       -0.0003
      8 C         -28.0005   49.2115   -9.8039 C.ar    1  UNL1       -0.0033
      9 C         -29.3459   49.5734   -9.8913 C.ar    1  UNL1       -0.0117
     10 C         -30.3666   47.0193  -11.2466 C.3     1  UNL1        0.1158
     11 N         -30.3825   46.0261  -12.1693 N.3     1  UNL1       -0.2851
     12 C         -30.2618   46.6810  -13.3317 C.3     1  UNL1        0.0910
     13 C         -30.2364   46.1219  -14.5982 C.3     1  UNL1        0.1018
     14 C         -30.1316   46.9969  -15.6865 C.3     1  UNL1        0.3136
     15 N         -30.0785   48.3616  -15.5018 N.am    1  UNL1       -0.1294
     16 C         -30.0832   48.8977  -14.2284 C.2     1  UNL1        0.4047
     17 O         -30.0132   50.1438  -14.0613 O.2     1  UNL1       -0.2174
     18 C         -30.1765   48.0244  -13.1278 C.3     1  UNL1        0.2038
     19 N         -30.2232   48.2699  -11.7938 N.3     1  UNL1       -0.2473
     20 H         -31.2599   45.5071  -12.1320 H       1  UNL1        0.1244
     21 C         -29.4780   45.6717   -9.3400 C.3     1  UNL1        0.0029
     22 C         -30.5135   46.7000   -9.7822 C.3     1  UNL1        0.0326
     23 C         -29.9761   49.2228  -16.6960 C.3     1  UNL1        0.3394
     24 C         -28.5555   49.2640  -17.2256 C.ar    1  UNL1        0.0505
     25 C         -27.6459   50.1683  -16.6461 C.ar    1  UNL1        0.0021
     26 C         -26.3214   50.2255  -17.0814 C.ar    1  UNL1       -0.0001
     27 C         -25.8825   49.3786  -18.0968 C.ar    1  UNL1       -0.0003
     28 C         -26.7668   48.4722  -18.6829 C.ar    1  UNL1       -0.0044
     29 C         -28.1085   48.4065  -18.2655 C.ar    1  UNL1       -0.0193
     30 C         -29.0188   47.3949  -18.9100 C.3     1  UNL1        0.0309
     31 C         -27.3633   49.9140   -6.1242 C.ar    1  UNL1        0.0035
     32 C         -26.7424   51.1299   -5.7945 C.ar    1  UNL1        0.0001
     33 C         -26.1458   51.3070   -4.5480 C.ar    1  UNL1        0.0005
     34 C         -26.1564   50.2732   -3.6147 C.ar    1  UNL1        0.0068
     35 C         -26.7553   49.0472   -3.9208 C.ar    1  UNL1        0.0375
     36 BR        -26.6437   47.6580   -2.5995 Br      1  UNL1       -0.0489
     37 C         -27.3615   48.8489   -5.1836 C.ar    1  UNL1        0.0433
     38 C         -27.9462   47.5322   -5.5272 C.ar    1  UNL1        0.1810
     39 N         -29.1957   47.1415   -5.2130 N.ar    1  UNL1       -0.1083
     40 N         -29.3114   45.9228   -5.7223 N.ar    1  UNL1       -0.0229
     41 N         -28.1844   45.5754   -6.3257 N.ar    1  UNL1       -0.0464
     42 N         -27.3184   46.5660   -6.2174 N.ar    1  UNL1       -0.2388
     43 H         -26.3444   46.5626   -6.5931 H       1  UNL1        0.1923
@<TRIPOS>BOND
     1    21    22    1
     2    22    10    1
     3    10    11    1
     4    11    12    1
     5    12    13    1
     6    13    14    1
     7    14    15    1
     8    15    23    1
     9    23    24    1
    10    24    25   ar
    11    25    26   ar
    12    26    27   ar
    13    27    28   ar
    14    28    29   ar
    15    29    30    1
    16    15    16    1
    17    16    17    2
    18    16    18    1
    19    18    19    1
    20    19     1    1
    21     1     2    1
    22     2     3    1
    23     3     4    1
    24     4     5   ar
    25     5     6   ar
    26     6    31    1
    27    31    32   ar
    28    32    33   ar
    29    33    34   ar
    30    34    35   ar
    31    35    36    1
    32    35    37   ar
    33    37    38    1
    34    38    39   ar
    35    39    40   ar
    36    40    41   ar
    37    41    42   ar
    38     6     7   ar
    39     7     8   ar
    40     8     9   ar
    41    19    10    1
    42     9     1    1
    43    18    12    1
    44     9     4   ar
    45    29    24   ar
    46    37    31   ar
    47    42    38   ar
    48    42    43    1
    49    11    20    1
@<TRIPOS>MOLECULE
*****
 43 49 0 0 0
SMALL
GASTEIGER

@<TRIPOS>ATOM
      1 C         -30.2329   49.1916  -11.3390 C.3     1  UNL1        0.0817
      2 C         -31.5818   49.7854  -10.8743 C.3     1  UNL1        0.0252
      3 C         -31.4713   50.0150   -9.3531 C.3     1  UNL1        0.0278
      4 C         -30.1788   49.3865   -8.9841 C.ar    1  UNL1       -0.0248
      5 C         -29.6473   49.2654   -7.6990 C.ar    1  UNL1       -0.0045
      6 C         -28.3819   48.6667   -7.5365 C.ar    1  UNL1       -0.0002
      7 C         -27.6823   48.1994   -8.6721 C.ar    1  UNL1       -0.0003
      8 C         -28.2356   48.3375   -9.9527 C.ar    1  UNL1       -0.0033
      9 C         -29.5006   48.9140  -10.0792 C.ar    1  UNL1       -0.0117
     10 C         -30.7453   46.7117  -11.7941 C.3     1  UNL1        0.1158
     11 N         -30.8452   45.8444  -12.8315 N.3     1  UNL1       -0.2851
     12 C         -30.5751   46.6065  -13.8996 C.3     1  UNL1        0.0910
     13 C         -30.5571   46.2003  -15.2233 C.3     1  UNL1        0.1018
     14 C         -30.2771   47.1725  -16.1915 C.3     1  UNL1        0.3136
     15 N         -30.0507   48.4854  -15.8392 N.am    1  UNL1       -0.1294
     16 C         -30.0516   48.8654  -14.5107 C.2     1  UNL1        0.4047
     17 O         -29.8235   50.0614  -14.1898 O.2     1  UNL1       -0.2174
     18 C         -30.3207   47.8918  -13.5297 C.3     1  UNL1        0.2038
     19 N         -30.4056   47.9848  -12.1783 N.3     1  UNL1       -0.2473
     20 H         -31.7852   45.4528  -12.8907 H       1  UNL1        0.1244
     21 C         -30.0113   45.1785   -9.9634 C.3     1  UNL1        0.0029
     22 C         -31.0123   46.2482  -10.3864 C.3     1  UNL1        0.0326
     23 C         -29.7692   49.4566  -16.9142 C.3     1  UNL1        0.3394
     24 C         -28.3018   49.4442  -17.2979 C.ar    1  UNL1        0.0505
     25 C         -27.4360   50.3671  -16.6817 C.ar    1  UNL1        0.0021
     26 C         -26.0736   50.3777  -16.9824 C.ar    1  UNL1       -0.0001
     27 C         -25.5528   49.4653  -17.8974 C.ar    1  UNL1       -0.0003
     28 C         -26.3928   48.5395  -18.5175 C.ar    1  UNL1       -0.0044
     29 C         -27.7708   48.5196  -18.2358 C.ar    1  UNL1       -0.0193
     30 C         -28.6331   47.4859  -18.9105 C.3     1  UNL1        0.0309
     31 C         -27.8002   48.5166   -6.1820 C.ar    1  UNL1        0.0035
     32 C         -27.8177   47.2433   -5.5895 C.ar    1  UNL1        0.0001
     33 C         -27.2243   47.0305   -4.3471 C.ar    1  UNL1        0.0005
     34 C         -26.6090   48.0848   -3.6765 C.ar    1  UNL1        0.0068
     35 C         -26.5885   49.3661   -4.2362 C.ar    1  UNL1        0.0375
     36 BR        -25.7902   50.7692   -3.1960 Br      1  UNL1       -0.0489
     37 C         -27.1904   49.6006   -5.4948 C.ar    1  UNL1        0.0433
     38 C         -27.2169   50.9690   -6.0610 C.ar    1  UNL1        0.1810
     39 N         -26.6039   51.3403   -7.2007 N.ar    1  UNL1       -0.1083
     40 N         -26.8999   52.6246   -7.3457 N.ar    1  UNL1       -0.0229
     41 N         -27.6629   53.0295   -6.3414 N.ar    1  UNL1       -0.0464
     42 N         -27.8747   52.0116   -5.5277 N.ar    1  UNL1       -0.2388
     43 H         -28.4353   52.0462   -4.6478 H       1  UNL1        0.1923
@<TRIPOS>BOND
     1    21    22    1
     2    22    10    1
     3    10    11    1
     4    11    12    1
     5    12    13    1
     6    13    14    1
     7    14    15    1
     8    15    23    1
     9    23    24    1
    10    24    25   ar
    11    25    26   ar
    12    26    27   ar
    13    27    28   ar
    14    28    29   ar
    15    29    30    1
    16    15    16    1
    17    16    17    2
    18    16    18    1
    19    18    19    1
    20    19     1    1
    21     1     2    1
    22     2     3    1
    23     3     4    1
    24     4     5   ar
    25     5     6   ar
    26     6    31    1
    27    31    32   ar
    28    32    33   ar
    29    33    34   ar
    30    34    35   ar
    31    35    36    1
    32    35    37   ar
    33    37    38    1
    34    38    39   ar
    35    39    40   ar
    36    40    41   ar
    37    41    42   ar
    38     6     7   ar
    39     7     8   ar
    40     8     9   ar
    41    19    10    1
    42     9     1    1
    43    18    12    1
    44     9     4   ar
    45    29    24   ar
    46    37    31   ar
    47    42    38   ar
    48    42    43    1
    49    11    20    1
@<TRIPOS>MOLECULE
*****
 43 49 0 0 0
SMALL
GASTEIGER

@<TRIPOS>ATOM
      1 C         -26.3494   50.8942   -7.1589 C.3     1  UNL1        0.0817
      2 C         -27.0713   52.0498   -6.4299 C.3     1  UNL1        0.0252
      3 C         -28.1936   51.4154   -5.5832 C.3     1  UNL1        0.0278
      4 C         -28.1965   49.9897   -5.9942 C.ar    1  UNL1       -0.0248
      5 C         -29.0812   48.9995   -5.5635 C.ar    1  UNL1       -0.0045
      6 C         -28.9137   47.6817   -6.0342 C.ar    1  UNL1       -0.0002
      7 C         -27.8615   47.3920   -6.9320 C.ar    1  UNL1       -0.0003
      8 C         -26.9832   48.4034   -7.3457 C.ar    1  UNL1       -0.0033
      9 C         -27.1886   49.7032   -6.8800 C.ar    1  UNL1       -0.0117
     10 C         -27.1557   51.3313   -9.5627 C.3     1  UNL1        0.1158
     11 N         -26.6549   51.5790  -10.7980 N.3     1  UNL1       -0.2851
     12 C         -25.3296   51.5717  -10.6023 C.3     1  UNL1        0.0910
     13 C         -24.3505   51.7890  -11.5571 C.3     1  UNL1        0.1018
     14 C         -23.0173   51.7654  -11.1292 C.3     1  UNL1        0.3136
     15 N         -22.6968   51.5560   -9.8054 N.am    1  UNL1       -0.1294
     16 C         -23.6883   51.3195   -8.8725 C.2     1  UNL1        0.4047
     17 O         -23.3917   51.1074   -7.6672 O.2     1  UNL1       -0.2174
     18 C         -25.0310   51.3298   -9.2962 C.3     1  UNL1        0.2038
     19 N         -26.1868   51.1532   -8.6070 N.3     1  UNL1       -0.2473
     20 H         -26.9679   52.4862  -11.1436 H       1  UNL1        0.1244
     21 C         -29.2607   50.0594  -10.0014 C.3     1  UNL1        0.0029
     22 C         -28.6444   51.2874   -9.3398 C.3     1  UNL1        0.0326
     23 C         -21.2705   51.5519   -9.4261 C.3     1  UNL1        0.3394
     24 C         -20.7439   52.9629   -9.2463 C.ar    1  UNL1        0.0505
     25 C         -21.1902   53.9663  -10.1266 C.ar    1  UNL1        0.0021
     26 C         -20.7545   55.2844   -9.9857 C.ar    1  UNL1       -0.0001
     27 C         -19.8719   55.6229   -8.9622 C.ar    1  UNL1       -0.0003
     28 C         -19.4195   54.6444   -8.0763 C.ar    1  UNL1       -0.0044
     29 C         -19.8387   53.3081   -8.2080 C.ar    1  UNL1       -0.0193
     30 C         -19.3435   52.2923   -7.2129 C.3     1  UNL1        0.0309
     31 C         -29.8457   46.6145   -5.6004 C.ar    1  UNL1        0.0035
     32 C         -30.7147   46.0632   -6.5562 C.ar    1  UNL1        0.0001
     33 C         -31.5638   45.0111   -6.2202 C.ar    1  UNL1        0.0005
     34 C         -31.5613   44.4969   -4.9258 C.ar    1  UNL1        0.0068
     35 C         -30.7166   45.0352   -3.9501 C.ar    1  UNL1        0.0375
     36 BR        -30.8479   44.3133   -2.1754 Br      1  UNL1       -0.0489
     37 C         -29.8514   46.1069   -4.2732 C.ar    1  UNL1        0.0433
     38 C         -28.9977   46.7128   -3.2255 C.ar    1  UNL1        0.1810
     39 N         -29.4132   47.6308   -2.3325 N.ar    1  UNL1       -0.1083
     40 N         -28.3518   47.8789   -1.5776 N.ar    1  UNL1       -0.0229
     41 N         -27.3257   47.1464   -1.9845 N.ar    1  UNL1       -0.0464
     42 N         -27.7068   46.4096   -3.0116 N.ar    1  UNL1       -0.2388
     43 H         -27.0989   45.7439   -3.5380 H       1  UNL1        0.1923
@<TRIPOS>BOND
     1    21    22    1
     2    22    10    1
     3    10    11    1
     4    11    12    1
     5    12    13    1
     6    13    14    1
     7    14    15    1
     8    15    23    1
     9    23    24    1
    10    24    25   ar
    11    25    26   ar
    12    26    27   ar
    13    27    28   ar
    14    28    29   ar
    15    29    30    1
    16    15    16    1
    17    16    17    2
    18    16    18    1
    19    18    19    1
    20    19     1    1
    21     1     2    1
    22     2     3    1
    23     3     4    1
    24     4     5   ar
    25     5     6   ar
    26     6    31    1
    27    31    32   ar
    28    32    33   ar
    29    33    34   ar
    30    34    35   ar
    31    35    36    1
    32    35    37   ar
    33    37    38    1
    34    38    39   ar
    35    39    40   ar
    36    40    41   ar
    37    41    42   ar
    38     6     7   ar
    39     7     8   ar
    40     8     9   ar
    41    19    10    1
    42     9     1    1
    43    18    12    1
    44     9     4   ar
    45    29    24   ar
    46    37    31   ar
    47    42    38   ar
    48    42    43    1
    49    11    20    1
