@<TRIPOS>MOLECULE
*****
 47 52 0 0 0
SMALL
GASTEIGER

@<TRIPOS>ATOM
      1 C          13.0713   83.2640   25.3944 C.ar    1  UNL1        0.0702
      2 C          13.0586   83.4849   24.0128 C.ar    1  UNL1        0.0191
      3 C          13.6836   84.6100   23.4736 C.ar    1  UNL1        0.0356
      4 C          14.3082   85.5343   24.3290 C.ar    1  UNL1        0.1318
      5 N          14.2858   85.3089   25.6729 N.ar    1  UNL1       -0.2279
      6 C          13.6878   84.2173   26.2192 C.ar    1  UNL1        0.1149
      7 N          14.9682   86.7103   23.8118 N.pl3   1  UNL1       -0.2932
      8 C          16.4336   86.8148   23.8878 C.3     1  UNL1        0.0923
      9 C          16.9643   87.6107   22.6931 C.3     1  UNL1        0.0252
     10 C          16.3561   89.0356   22.6163 C.3     1  UNL1        0.0472
     11 C          14.9894   89.1464   23.3380 C.3     1  UNL1        0.0252
     12 C          14.1858   87.8412   23.2828 C.3     1  UNL1        0.0923
     13 C          16.2476   89.5073   21.1564 C.3     1  UNL1        0.2054
     14 O          16.1830   88.3797   20.2853 O.3     1  UNL1       -0.4755
     15 C          14.9977   87.7239   19.9221 C.ar    1  UNL1        0.1388
     16 C          14.8743   86.3224   19.9431 C.ar    1  UNL1        0.0369
     17 C          13.6717   85.7182   19.5712 C.ar    1  UNL1        0.0033
     18 C          12.5837   86.4999   19.1760 C.ar    1  UNL1        0.0066
     19 C          12.6880   87.9008   19.1489 C.ar    1  UNL1        0.0785
     20 C          13.9032   88.5023   19.5253 C.ar    1  UNL1        0.0433
     21 C          11.5342   88.7271   18.7300 C.2     1  UNL1        0.3381
     22 O          11.6117   89.4608   17.7075 O.2     1  UNL1       -0.2451
     23 O          10.3501   88.7019   19.4623 O.3     1  UNL1       -0.4771
     24 H           9.5542   89.2637   19.1842 H       1  UNL1        0.2954
     25 C          11.2211   81.5236   25.3610 C.2     1  UNL1        0.2839
     26 O          10.7474   81.9648   24.2801 O.2     1  UNL1       -0.2665
     27 N          12.4022   82.1122   25.9338 N.am    1  UNL1       -0.2766
     28 H          12.7751   81.7225   26.8268 H       1  UNL1        0.1553
     29 C           8.3584   76.7799   27.6889 C.ar    1  UNL1        0.0002
     30 C           8.9249   77.3337   28.8692 C.ar    1  UNL1        0.0031
     31 C           9.7140   78.4961   28.8133 C.ar    1  UNL1        0.0375
     32 C           9.9208   79.0854   27.5710 C.ar    1  UNL1        0.1452
     33 O          10.6182   80.1630   27.3056 O.2     1  UNL1       -0.4492
     34 C          10.5496   80.3808   26.0040 C.ar    1  UNL1        0.1946
     35 C           9.7884   79.3781   25.3903 C.ar    1  UNL1        0.0202
     36 C           9.4999   79.1820   23.9328 C.3     1  UNL1        0.0345
     37 C           9.3814   78.5631   26.4271 C.ar    1  UNL1        0.0337
     38 C           8.5957   77.4107   26.4440 C.ar    1  UNL1        0.0028
     39 C           5.9379   73.2245   27.8962 C.ar    1  UNL1        0.0073
     40 C           6.4977   73.7693   29.0612 C.ar    1  UNL1       -0.0019
     41 C           7.2802   74.9256   28.9953 C.ar    1  UNL1       -0.0002
     42 C           7.5266   75.5519   27.7602 C.ar    1  UNL1       -0.0000
     43 C           6.9775   74.9919   26.5927 C.ar    1  UNL1       -0.0002
     44 C           6.1960   73.8349   26.6600 C.ar    1  UNL1       -0.0019
     45 C           5.1311   71.9598   27.9630 C.3     1  UNL1        0.1687
     46 C           3.4502   73.0181   29.1271 C.3     1  UNL1        0.1746
     47 O           4.3815   71.9601   29.1589 O.3     1  UNL1       -0.3463
@<TRIPOS>BOND
     1    46    47    1
     2    47    45    1
     3    45    39    1
     4    39    40   ar
     5    40    41   ar
     6    41    42   ar
     7    42    29    1
     8    29    30   ar
     9    30    31   ar
    10    31    32   ar
    11    32    33   ar
    12    33    34   ar
    13    34    25    1
    14    25    26    2
    15    25    27   am
    16    27     1    1
    17     1     2   ar
    18     2     3   ar
    19     3     4   ar
    20     4     7    1
    21     7     8    1
    22     8     9    1
    23     9    10    1
    24    10    13    1
    25    13    14    1
    26    14    15    1
    27    15    16   ar
    28    16    17   ar
    29    17    18   ar
    30    18    19   ar
    31    19    21    1
    32    21    22    2
    33    21    23    1
    34    19    20   ar
    35    10    11    1
    36    11    12    1
    37     4     5   ar
    38     5     6   ar
    39    34    35   ar
    40    35    36    1
    41    35    37   ar
    42    37    38   ar
    43    42    43   ar
    44    43    44   ar
    45    44    39   ar
    46    38    29   ar
    47    37    32   ar
    48     6     1   ar
    49    12     7    1
    50    20    15   ar
    51    27    28    1
    52    23    24    1
@<TRIPOS>MOLECULE
*****
 47 52 0 0 0
SMALL
GASTEIGER

@<TRIPOS>ATOM
      1 C          13.2389   83.4797   25.3705 C.ar    1  UNL1        0.0702
      2 C          13.3463   83.5809   23.9792 C.ar    1  UNL1        0.0191
      3 C          14.0232   84.6557   23.4013 C.ar    1  UNL1        0.0356
      4 C          14.5788   85.6503   24.2248 C.ar    1  UNL1        0.1318
      5 N          14.4396   85.5413   25.5762 N.ar    1  UNL1       -0.2279
      6 C          13.7892   84.5006   26.1606 C.ar    1  UNL1        0.1149
      7 N          15.2890   86.7776   23.6674 N.pl3   1  UNL1       -0.2932
      8 C          16.7593   86.7613   23.6230 C.3     1  UNL1        0.0923
      9 C          17.2545   87.5322   22.3970 C.3     1  UNL1        0.0252
     10 C          16.7617   89.0030   22.3861 C.3     1  UNL1        0.0472
     11 C          15.4722   89.2118   23.2196 C.3     1  UNL1        0.0252
     12 C          14.5620   87.9775   23.2172 C.3     1  UNL1        0.0923
     13 C          16.5736   89.5074   20.9454 C.3     1  UNL1        0.2054
     14 O          15.2055   89.3821   20.5617 O.3     1  UNL1       -0.4755
     15 C          14.7202   88.4326   19.6507 C.ar    1  UNL1        0.1388
     16 C          14.0050   88.7939   18.4940 C.ar    1  UNL1        0.0369
     17 C          13.5426   87.8092   17.6188 C.ar    1  UNL1        0.0033
     18 C          13.7863   86.4599   17.8848 C.ar    1  UNL1        0.0066
     19 C          14.4988   86.0799   19.0346 C.ar    1  UNL1        0.0785
     20 C          14.9617   87.0780   19.9119 C.ar    1  UNL1        0.0433
     21 C          14.7559   84.6499   19.3146 C.2     1  UNL1        0.3381
     22 O          15.3762   84.3045   20.3566 O.2     1  UNL1       -0.2451
     23 O          14.3143   83.6706   18.4285 O.3     1  UNL1       -0.4771
     24 H          14.4850   82.6888   18.6107 H       1  UNL1        0.2954
     25 C          11.3757   81.7533   25.3354 C.2     1  UNL1        0.2839
     26 O          10.9889   82.1102   24.1907 O.2     1  UNL1       -0.2665
     27 N          12.5178   82.3784   25.9472 N.am    1  UNL1       -0.2766
     28 H          12.8186   82.0586   26.8935 H       1  UNL1        0.1553
     29 C           8.3020   77.2190   27.8071 C.ar    1  UNL1        0.0002
     30 C           8.7394   77.8929   28.9799 C.ar    1  UNL1        0.0031
     31 C           9.5256   79.0552   28.8926 C.ar    1  UNL1        0.0375
     32 C           9.8596   79.5237   27.6267 C.ar    1  UNL1        0.1452
     33 O          10.5770   80.5800   27.3308 O.2     1  UNL1       -0.4492
     34 C          10.6446   80.6693   26.0141 C.ar    1  UNL1        0.1946
     35 C           9.9557   79.6011   25.4260 C.ar    1  UNL1        0.0202
     36 C           9.8225   79.2601   23.9727 C.3     1  UNL1        0.0345
     37 C           9.4451   78.8852   26.4898 C.ar    1  UNL1        0.0337
     38 C           8.6663   77.7290   26.5378 C.ar    1  UNL1        0.0028
     39 C           5.8893   73.6659   28.1178 C.ar    1  UNL1        0.0073
     40 C           7.1000   73.7635   28.8192 C.ar    1  UNL1       -0.0019
     41 C           7.8818   74.9181   28.7220 C.ar    1  UNL1       -0.0002
     42 C           7.4718   75.9923   27.9117 C.ar    1  UNL1       -0.0000
     43 C           6.2655   75.8826   27.1968 C.ar    1  UNL1       -0.0002
     44 C           5.4853   74.7269   27.2941 C.ar    1  UNL1       -0.0019
     45 C           5.0704   72.4093   28.1911 C.3     1  UNL1        0.1687
     46 C           4.0290   73.4432   29.9651 C.3     1  UNL1        0.1746
     47 O           3.8227   72.7120   28.7775 O.3     1  UNL1       -0.3463
@<TRIPOS>BOND
     1    46    47    1
     2    47    45    1
     3    45    39    1
     4    39    40   ar
     5    40    41   ar
     6    41    42   ar
     7    42    29    1
     8    29    30   ar
     9    30    31   ar
    10    31    32   ar
    11    32    33   ar
    12    33    34   ar
    13    34    25    1
    14    25    26    2
    15    25    27   am
    16    27     1    1
    17     1     2   ar
    18     2     3   ar
    19     3     4   ar
    20     4     7    1
    21     7     8    1
    22     8     9    1
    23     9    10    1
    24    10    13    1
    25    13    14    1
    26    14    15    1
    27    15    16   ar
    28    16    17   ar
    29    17    18   ar
    30    18    19   ar
    31    19    21    1
    32    21    22    2
    33    21    23    1
    34    19    20   ar
    35    10    11    1
    36    11    12    1
    37     4     5   ar
    38     5     6   ar
    39    34    35   ar
    40    35    36    1
    41    35    37   ar
    42    37    38   ar
    43    42    43   ar
    44    43    44   ar
    45    44    39   ar
    46    38    29   ar
    47    37    32   ar
    48     6     1   ar
    49    12     7    1
    50    20    15   ar
    51    27    28    1
    52    23    24    1
@<TRIPOS>MOLECULE
*****
 47 52 0 0 0
SMALL
GASTEIGER

@<TRIPOS>ATOM
      1 C          12.9679   83.2257   25.2487 C.ar    1  UNL1        0.0702
      2 C          13.4760   84.3735   25.8669 C.ar    1  UNL1        0.0191
      3 C          14.2226   85.2966   25.1335 C.ar    1  UNL1        0.0356
      4 C          14.4815   85.0562   23.7729 C.ar    1  UNL1        0.1318
      5 N          13.9959   83.9189   23.2000 N.ar    1  UNL1       -0.2279
      6 C          13.2620   83.0091   23.8937 C.ar    1  UNL1        0.1149
      7 N          15.2479   85.9869   22.9776 N.pl3   1  UNL1       -0.2932
      8 C          15.7126   85.5898   21.6396 C.3     1  UNL1        0.0923
      9 C          15.7579   86.8105   20.7175 C.3     1  UNL1        0.0252
     10 C          16.6815   87.9298   21.2652 C.3     1  UNL1        0.0472
     11 C          16.8726   87.8546   22.8011 C.3     1  UNL1        0.0252
     12 C          15.6385   87.2989   23.5225 C.3     1  UNL1        0.0923
     13 C          16.1718   89.3176   20.8413 C.3     1  UNL1        0.2054
     14 O          14.7835   89.4389   21.1458 O.3     1  UNL1       -0.4755
     15 C          13.7466   89.2053   20.2309 C.ar    1  UNL1        0.1388
     16 C          12.4274   88.9349   20.6389 C.ar    1  UNL1        0.0369
     17 C          11.4310   88.7086   19.6873 C.ar    1  UNL1        0.0033
     18 C          11.7364   88.7488   18.3249 C.ar    1  UNL1        0.0066
     19 C          13.0479   89.0174   17.8984 C.ar    1  UNL1        0.0785
     20 C          14.0465   89.2446   18.8634 C.ar    1  UNL1        0.0433
     21 C          13.3693   89.0596   16.4547 C.2     1  UNL1        0.3381
     22 O          14.5671   89.1381   16.0689 O.2     1  UNL1       -0.2451
     23 O          12.3500   89.0129   15.5070 O.3     1  UNL1       -0.4771
     24 H          12.5591   89.0411   14.5161 H       1  UNL1        0.2954
     25 C          11.1372   81.4835   25.5063 C.2     1  UNL1        0.2839
     26 O          10.8328   81.5397   24.2850 O.2     1  UNL1       -0.2665
     27 N          12.2211   82.2745   26.0251 N.am    1  UNL1       -0.2766
     28 H          12.4541   82.2034   27.0394 H       1  UNL1        0.1553
     29 C           7.8872   77.6355   28.7846 C.ar    1  UNL1        0.0002
     30 C           8.5004   78.3907   29.8211 C.ar    1  UNL1        0.0031
     31 C           9.3849   79.4416   29.5208 C.ar    1  UNL1        0.0375
     32 C           9.6388   79.7185   28.1821 C.ar    1  UNL1        0.1452
     33 O          10.4245   80.6477   27.6949 O.2     1  UNL1       -0.4492
     34 C          10.3725   80.5734   26.3765 C.ar    1  UNL1        0.1946
     35 C           9.5282   79.5254   25.9891 C.ar    1  UNL1        0.0202
     36 C           9.2217   79.0324   24.6074 C.3     1  UNL1        0.0345
     37 C           9.0553   78.9998   27.1745 C.ar    1  UNL1        0.0337
     38 C           8.1749   77.9496   27.4346 C.ar    1  UNL1        0.0028
     39 C           5.1860   74.4183   29.7311 C.ar    1  UNL1        0.0073
     40 C           4.7436   75.5166   28.9792 C.ar    1  UNL1       -0.0019
     41 C           5.6208   76.5595   28.6681 C.ar    1  UNL1       -0.0002
     42 C           6.9546   76.5279   29.1138 C.ar    1  UNL1       -0.0000
     43 C           7.3886   75.4327   29.8822 C.ar    1  UNL1       -0.0002
     44 C           6.5100   74.3911   30.1934 C.ar    1  UNL1       -0.0019
     45 C           4.2322   73.3184   30.0989 C.3     1  UNL1        0.1687
     46 C           3.7613   71.5407   28.7138 C.3     1  UNL1        0.1746
     47 O           3.5348   72.9136   28.9405 O.3     1  UNL1       -0.3463
@<TRIPOS>BOND
     1    46    47    1
     2    47    45    1
     3    45    39    1
     4    39    40   ar
     5    40    41   ar
     6    41    42   ar
     7    42    29    1
     8    29    30   ar
     9    30    31   ar
    10    31    32   ar
    11    32    33   ar
    12    33    34   ar
    13    34    25    1
    14    25    26    2
    15    25    27   am
    16    27     1    1
    17     1     2   ar
    18     2     3   ar
    19     3     4   ar
    20     4     7    1
    21     7     8    1
    22     8     9    1
    23     9    10    1
    24    10    13    1
    25    13    14    1
    26    14    15    1
    27    15    16   ar
    28    16    17   ar
    29    17    18   ar
    30    18    19   ar
    31    19    21    1
    32    21    22    2
    33    21    23    1
    34    19    20   ar
    35    10    11    1
    36    11    12    1
    37     4     5   ar
    38     5     6   ar
    39    34    35   ar
    40    35    36    1
    41    35    37   ar
    42    37    38   ar
    43    42    43   ar
    44    43    44   ar
    45    44    39   ar
    46    38    29   ar
    47    37    32   ar
    48     6     1   ar
    49    12     7    1
    50    20    15   ar
    51    27    28    1
    52    23    24    1
@<TRIPOS>MOLECULE
*****
 47 52 0 0 0
SMALL
GASTEIGER

@<TRIPOS>ATOM
      1 C           9.3691   79.5416   25.8663 C.ar    1  UNL1        0.0702
      2 C           9.0613   78.5611   24.9168 C.ar    1  UNL1        0.0191
      3 C           8.3811   77.4030   25.2953 C.ar    1  UNL1        0.0356
      4 C           8.0254   77.2153   26.6423 C.ar    1  UNL1        0.1318
      5 N           8.3580   78.1741   27.5520 N.ar    1  UNL1       -0.2279
      6 C           9.0154   79.3120   27.2048 C.ar    1  UNL1        0.1149
      7 N           7.3190   76.0323   27.0755 N.pl3   1  UNL1       -0.2932
      8 C           8.0777   74.8337   27.4650 C.3     1  UNL1        0.0923
      9 C           7.3282   74.0732   28.5614 C.3     1  UNL1        0.0252
     10 C           5.9029   73.6511   28.1180 C.3     1  UNL1        0.0472
     11 C           5.3384   74.5398   26.9810 C.3     1  UNL1        0.0252
     12 C           5.8465   75.9850   27.0546 C.3     1  UNL1        0.0923
     13 C           4.9425   73.6177   29.3189 C.3     1  UNL1        0.2054
     14 O           5.4795   74.3893   30.3917 O.3     1  UNL1       -0.4755
     15 C           5.4594   75.7904   30.4496 C.ar    1  UNL1        0.1388
     16 C           4.2691   76.5328   30.3392 C.ar    1  UNL1        0.0369
     17 C           4.3034   77.9272   30.4026 C.ar    1  UNL1        0.0033
     18 C           5.5181   78.5945   30.5760 C.ar    1  UNL1        0.0066
     19 C           6.7168   77.8703   30.6884 C.ar    1  UNL1        0.0785
     20 C           6.6742   76.4652   30.6236 C.ar    1  UNL1        0.0433
     21 C           8.0026   78.5791   30.8720 C.2     1  UNL1        0.3381
     22 O           8.0774   79.5788   31.6367 O.2     1  UNL1       -0.2451
     23 O           9.1440   78.1478   30.2009 O.3     1  UNL1       -0.4771
     24 H          10.0293   78.6259   30.3196 H       1  UNL1        0.2954
     25 C          11.5037   80.7431   25.1932 C.2     1  UNL1        0.2839
     26 O          12.1807   79.6812   25.2299 O.2     1  UNL1       -0.2665
     27 N          10.0908   80.7170   25.4626 N.am    1  UNL1       -0.2766
     28 H           9.5547   81.6108   25.4195 H       1  UNL1        0.1553
     29 C          14.5930   85.7206   23.8527 C.ar    1  UNL1        0.0002
     30 C          13.2666   86.1843   23.6375 C.ar    1  UNL1        0.0031
     31 C          12.1649   85.3324   23.8304 C.ar    1  UNL1        0.0375
     32 C          12.4133   84.0265   24.2382 C.ar    1  UNL1        0.1452
     33 O          11.5339   83.0829   24.4715 O.2     1  UNL1       -0.4492
     34 C          12.1909   81.9990   24.8455 C.ar    1  UNL1        0.1946
     35 C          13.5694   82.2455   24.8299 C.ar    1  UNL1        0.0202
     36 C          14.6933   81.2958   25.1143 C.3     1  UNL1        0.0345
     37 C          13.6848   83.5671   24.4492 C.ar    1  UNL1        0.0337
     38 C          14.8014   84.3827   24.2658 C.ar    1  UNL1        0.0028
     39 C          17.9385   88.3646   23.2528 C.ar    1  UNL1        0.0073
     40 C          17.3234   87.7408   22.1575 C.ar    1  UNL1       -0.0019
     41 C          16.2348   86.8856   22.3510 C.ar    1  UNL1       -0.0002
     42 C          15.7489   86.6296   23.6459 C.ar    1  UNL1       -0.0000
     43 C          16.3801   87.2439   24.7425 C.ar    1  UNL1       -0.0002
     44 C          17.4693   88.0981   24.5475 C.ar    1  UNL1       -0.0019
     45 C          19.1330   89.2511   23.0474 C.3     1  UNL1        0.1687
     46 C          19.8805   89.4223   20.8766 C.3     1  UNL1        0.1746
     47 O          19.9671   88.6721   22.0671 O.3     1  UNL1       -0.3463
@<TRIPOS>BOND
     1    46    47    1
     2    47    45    1
     3    45    39    1
     4    39    40   ar
     5    40    41   ar
     6    41    42   ar
     7    42    29    1
     8    29    30   ar
     9    30    31   ar
    10    31    32   ar
    11    32    33   ar
    12    33    34   ar
    13    34    25    1
    14    25    26    2
    15    25    27   am
    16    27     1    1
    17     1     2   ar
    18     2     3   ar
    19     3     4   ar
    20     4     7    1
    21     7     8    1
    22     8     9    1
    23     9    10    1
    24    10    13    1
    25    13    14    1
    26    14    15    1
    27    15    16   ar
    28    16    17   ar
    29    17    18   ar
    30    18    19   ar
    31    19    21    1
    32    21    22    2
    33    21    23    1
    34    19    20   ar
    35    10    11    1
    36    11    12    1
    37     4     5   ar
    38     5     6   ar
    39    34    35   ar
    40    35    36    1
    41    35    37   ar
    42    37    38   ar
    43    42    43   ar
    44    43    44   ar
    45    44    39   ar
    46    38    29   ar
    47    37    32   ar
    48     6     1   ar
    49    12     7    1
    50    20    15   ar
    51    27    28    1
    52    23    24    1
@<TRIPOS>MOLECULE
*****
 47 52 0 0 0
SMALL
GASTEIGER

@<TRIPOS>ATOM
      1 C          12.9142   83.4668   25.3330 C.ar    1  UNL1        0.0702
      2 C          12.8959   83.9824   24.0324 C.ar    1  UNL1        0.0191
      3 C          13.6962   85.0751   23.6966 C.ar    1  UNL1        0.0356
      4 C          14.5060   85.6710   24.6790 C.ar    1  UNL1        0.1318
      5 N          14.4878   85.1652   25.9445 N.ar    1  UNL1       -0.2279
      6 C          13.7204   84.0986   26.2924 C.ar    1  UNL1        0.1149
      7 N          15.3506   86.8018   24.3727 N.pl3   1  UNL1       -0.2932
      8 C          16.7460   86.8148   24.8381 C.3     1  UNL1        0.0923
      9 C          17.6239   87.5723   23.8392 C.3     1  UNL1        0.0252
     10 C          17.1464   89.0322   23.6225 C.3     1  UNL1        0.0472
     11 C          15.6460   89.2303   23.9551 C.3     1  UNL1        0.0252
     12 C          14.8083   87.9777   23.6698 C.3     1  UNL1        0.0923
     13 C          17.4606   89.5052   22.1932 C.3     1  UNL1        0.2054
     14 O          17.3853   88.4040   21.2896 O.3     1  UNL1       -0.4755
     15 C          16.1988   87.9339   20.7081 C.ar    1  UNL1        0.1388
     16 C          15.2044   88.8002   20.2178 C.ar    1  UNL1        0.0369
     17 C          14.0402   88.2810   19.6480 C.ar    1  UNL1        0.0033
     18 C          13.8545   86.8995   19.5608 C.ar    1  UNL1        0.0066
     19 C          14.8364   86.0187   20.0448 C.ar    1  UNL1        0.0785
     20 C          16.0071   86.5495   20.6176 C.ar    1  UNL1        0.0433
     21 C          14.6378   84.5554   19.9515 C.2     1  UNL1        0.3381
     22 O          15.1263   83.7875   20.8241 O.2     1  UNL1       -0.2451
     23 O          13.9081   84.0119   18.8973 O.3     1  UNL1       -0.4771
     24 H          13.7662   83.0115   18.8240 H       1  UNL1        0.2954
     25 C          11.5151   81.4430   24.7010 C.2     1  UNL1        0.2839
     26 O          11.8237   81.5385   23.4832 O.2     1  UNL1       -0.2665
     27 N          12.0659   82.3559   25.6668 N.am    1  UNL1       -0.2766
     28 H          11.7967   82.2494   26.6690 H       1  UNL1        0.1553
     29 C           7.8282   77.1269   26.6746 C.ar    1  UNL1        0.0002
     30 C           7.8086   76.8536   25.2798 C.ar    1  UNL1        0.0031
     31 C           8.5505   77.6398   24.3806 C.ar    1  UNL1        0.0375
     32 C           9.3025   78.6888   24.8978 C.ar    1  UNL1        0.1452
     33 O          10.0564   79.5320   24.2355 O.2     1  UNL1       -0.4492
     34 C          10.5995   80.3629   25.1078 C.ar    1  UNL1        0.1946
     35 C          10.1548   80.0579   26.4003 C.ar    1  UNL1        0.0202
     36 C          10.4536   80.7693   27.6851 C.3     1  UNL1        0.0345
     37 C           9.3306   78.9628   26.2380 C.ar    1  UNL1        0.0337
     38 C           8.6059   78.2061   27.1588 C.ar    1  UNL1        0.0028
     39 C           5.5461   74.6910   29.3951 C.ar    1  UNL1        0.0073
     40 C           4.9041   75.3949   28.3657 C.ar    1  UNL1       -0.0019
     41 C           5.6446   76.1827   27.4797 C.ar    1  UNL1       -0.0002
     42 C           7.0406   76.2897   27.6147 C.ar    1  UNL1       -0.0000
     43 C           7.6776   75.5957   28.6592 C.ar    1  UNL1       -0.0002
     44 C           6.9357   74.8092   29.5450 C.ar    1  UNL1       -0.0019
     45 C           4.7452   73.8775   30.3706 C.3     1  UNL1        0.1687
     46 C           3.6426   72.2008   29.2421 C.3     1  UNL1        0.1746
     47 O           3.5270   73.5061   29.7623 O.3     1  UNL1       -0.3463
@<TRIPOS>BOND
     1    46    47    1
     2    47    45    1
     3    45    39    1
     4    39    40   ar
     5    40    41   ar
     6    41    42   ar
     7    42    29    1
     8    29    30   ar
     9    30    31   ar
    10    31    32   ar
    11    32    33   ar
    12    33    34   ar
    13    34    25    1
    14    25    26    2
    15    25    27   am
    16    27     1    1
    17     1     2   ar
    18     2     3   ar
    19     3     4   ar
    20     4     7    1
    21     7     8    1
    22     8     9    1
    23     9    10    1
    24    10    13    1
    25    13    14    1
    26    14    15    1
    27    15    16   ar
    28    16    17   ar
    29    17    18   ar
    30    18    19   ar
    31    19    21    1
    32    21    22    2
    33    21    23    1
    34    19    20   ar
    35    10    11    1
    36    11    12    1
    37     4     5   ar
    38     5     6   ar
    39    34    35   ar
    40    35    36    1
    41    35    37   ar
    42    37    38   ar
    43    42    43   ar
    44    43    44   ar
    45    44    39   ar
    46    38    29   ar
    47    37    32   ar
    48     6     1   ar
    49    12     7    1
    50    20    15   ar
    51    27    28    1
    52    23    24    1
@<TRIPOS>MOLECULE
*****
 47 52 0 0 0
SMALL
GASTEIGER

@<TRIPOS>ATOM
      1 C           9.4159   79.2875   22.7983 C.ar    1  UNL1        0.0702
      2 C           9.0515   78.3437   23.7649 C.ar    1  UNL1        0.0191
      3 C           8.2930   77.2278   23.4089 C.ar    1  UNL1        0.0356
      4 C           7.8768   77.0674   22.0758 C.ar    1  UNL1        0.1318
      5 N           8.2243   78.0132   21.1580 N.ar    1  UNL1       -0.2279
      6 C           8.9668   79.1048   21.4814 C.ar    1  UNL1        0.1149
      7 N           7.0927   75.9261   21.6651 N.pl3   1  UNL1       -0.2932
      8 C           7.3024   74.6258   22.3203 C.3     1  UNL1        0.0923
      9 C           5.9870   73.8446   22.3660 C.3     1  UNL1        0.0252
     10 C           5.3895   73.6119   20.9535 C.3     1  UNL1        0.0472
     11 C           5.8732   74.6562   19.9159 C.3     1  UNL1        0.0252
     12 C           6.1433   76.0295   20.5432 C.3     1  UNL1        0.0923
     13 C           3.8534   73.5623   21.0095 C.3     1  UNL1        0.2054
     14 O           3.3094   74.7809   20.5057 O.3     1  UNL1       -0.4755
     15 C           2.7746   75.8018   21.3049 C.ar    1  UNL1        0.1388
     16 C           1.7973   76.6966   20.8313 C.ar    1  UNL1        0.0369
     17 C           1.2974   77.6967   21.6677 C.ar    1  UNL1        0.0033
     18 C           1.7633   77.8160   22.9790 C.ar    1  UNL1        0.0066
     19 C           2.7387   76.9316   23.4696 C.ar    1  UNL1        0.0785
     20 C           3.2375   75.9262   22.6208 C.ar    1  UNL1        0.0433
     21 C           3.2309   77.0597   24.8591 C.2     1  UNL1        0.3381
     22 O           4.4097   76.7220   25.1529 O.2     1  UNL1       -0.2451
     23 O           2.3955   77.5553   25.8569 O.3     1  UNL1       -0.4771
     24 H           2.7225   77.6471   26.8113 H       1  UNL1        0.2954
     25 C          11.3465   80.3934   24.0243 C.2     1  UNL1        0.2839
     26 O          11.8130   79.2869   24.4057 O.2     1  UNL1       -0.2665
     27 N          10.1772   80.4425   23.1876 N.am    1  UNL1       -0.2766
     28 H           9.8166   81.3726   22.8826 H       1  UNL1        0.1553
     29 C          14.0666   85.3694   26.0135 C.ar    1  UNL1        0.0002
     30 C          14.4011   85.4365   24.6336 C.ar    1  UNL1        0.0031
     31 C          13.9686   84.4428   23.7378 C.ar    1  UNL1        0.0375
     32 C          13.2048   83.3965   24.2429 C.ar    1  UNL1        0.1452
     33 O          12.7080   82.3799   23.5813 O.2     1  UNL1       -0.4492
     34 C          12.0415   81.6250   24.4370 C.ar    1  UNL1        0.1946
     35 C          12.1317   82.1675   25.7250 C.ar    1  UNL1        0.0202
     36 C          11.5909   81.6201   27.0111 C.3     1  UNL1        0.0345
     37 C          12.8753   83.3197   25.5687 C.ar    1  UNL1        0.0337
     38 C          13.2883   84.2855   26.4864 C.ar    1  UNL1        0.0028
     39 C          15.3988   88.4354   28.7278 C.ar    1  UNL1        0.0073
     40 C          15.8309   88.4341   27.3934 C.ar    1  UNL1       -0.0019
     41 C          15.3957   87.4415   26.5107 C.ar    1  UNL1       -0.0002
     42 C          14.5289   86.4248   26.9502 C.ar    1  UNL1       -0.0000
     43 C          14.1122   86.4205   28.2936 C.ar    1  UNL1       -0.0002
     44 C          14.5490   87.4132   29.1755 C.ar    1  UNL1       -0.0019
     45 C          15.8988   89.4786   29.6851 C.3     1  UNL1        0.1687
     46 C          16.3386   89.5059   31.9448 C.3     1  UNL1        0.1746
     47 O          15.3672   89.2143   30.9656 O.3     1  UNL1       -0.3463
@<TRIPOS>BOND
     1    46    47    1
     2    47    45    1
     3    45    39    1
     4    39    40   ar
     5    40    41   ar
     6    41    42   ar
     7    42    29    1
     8    29    30   ar
     9    30    31   ar
    10    31    32   ar
    11    32    33   ar
    12    33    34   ar
    13    34    25    1
    14    25    26    2
    15    25    27   am
    16    27     1    1
    17     1     2   ar
    18     2     3   ar
    19     3     4   ar
    20     4     7    1
    21     7     8    1
    22     8     9    1
    23     9    10    1
    24    10    13    1
    25    13    14    1
    26    14    15    1
    27    15    16   ar
    28    16    17   ar
    29    17    18   ar
    30    18    19   ar
    31    19    21    1
    32    21    22    2
    33    21    23    1
    34    19    20   ar
    35    10    11    1
    36    11    12    1
    37     4     5   ar
    38     5     6   ar
    39    34    35   ar
    40    35    36    1
    41    35    37   ar
    42    37    38   ar
    43    42    43   ar
    44    43    44   ar
    45    44    39   ar
    46    38    29   ar
    47    37    32   ar
    48     6     1   ar
    49    12     7    1
    50    20    15   ar
    51    27    28    1
    52    23    24    1
@<TRIPOS>MOLECULE
*****
 47 52 0 0 0
SMALL
GASTEIGER

@<TRIPOS>ATOM
      1 C          12.5021   82.5655   25.0876 C.ar    1  UNL1        0.0702
      2 C          13.3318   83.1612   26.0438 C.ar    1  UNL1        0.0191
      3 C          14.1565   84.2307   25.6924 C.ar    1  UNL1        0.0356
      4 C          14.1663   84.6933   24.3650 C.ar    1  UNL1        0.1318
      5 N          13.3669   84.0803   23.4470 N.ar    1  UNL1       -0.2279
      6 C          12.5520   83.0410   23.7682 C.ar    1  UNL1        0.1149
      7 N          15.0033   85.7986   23.9602 N.pl3   1  UNL1       -0.2932
      8 C          15.9452   85.6270   22.8435 C.3     1  UNL1        0.0923
      9 C          16.1101   86.9489   22.0899 C.3     1  UNL1        0.0252
     10 C          16.6134   88.0930   23.0086 C.3     1  UNL1        0.0472
     11 C          16.2869   87.8519   24.5040 C.3     1  UNL1        0.0252
     12 C          14.9827   87.0702   24.7043 C.3     1  UNL1        0.0923
     13 C          16.0696   89.4528   22.5387 C.3     1  UNL1        0.2054
     14 O          15.9635   89.4681   21.1163 O.3     1  UNL1       -0.4755
     15 C          14.7569   89.3644   20.4091 C.ar    1  UNL1        0.1388
     16 C          13.5026   89.4539   21.0404 C.ar    1  UNL1        0.0369
     17 C          12.3301   89.3434   20.2903 C.ar    1  UNL1        0.0033
     18 C          12.3938   89.1434   18.9094 C.ar    1  UNL1        0.0066
     19 C          13.6371   89.0516   18.2615 C.ar    1  UNL1        0.0785
     20 C          14.8144   89.1641   19.0241 C.ar    1  UNL1        0.0433
     21 C          13.7024   88.8397   16.7985 C.2     1  UNL1        0.3381
     22 O          14.8165   88.7732   16.2118 O.2     1  UNL1       -0.2451
     23 O          12.5321   88.7115   16.0549 O.3     1  UNL1       -0.4771
     24 H          12.5656   88.5661   15.0529 H       1  UNL1        0.2954
     25 C          11.9037   80.0974   25.0278 C.2     1  UNL1        0.2839
     26 O          12.9156   79.8102   24.3343 O.2     1  UNL1       -0.2665
     27 N          11.6769   81.4500   25.4620 N.am    1  UNL1       -0.2766
     28 H          10.8335   81.6573   26.0398 H       1  UNL1        0.1553
     29 C           8.0459   75.8462   26.8060 C.ar    1  UNL1        0.0002
     30 C           8.5968   75.2183   25.6558 C.ar    1  UNL1        0.0031
     31 C           9.5768   75.8642   24.8816 C.ar    1  UNL1        0.0375
     32 C           9.9893   77.1320   25.2763 C.ar    1  UNL1        0.1452
     33 O          10.8829   77.8962   24.6971 O.2     1  UNL1       -0.4492
     34 C          10.9791   79.0120   25.3986 C.ar    1  UNL1        0.1946
     35 C          10.0831   78.9797   26.4745 C.ar    1  UNL1        0.0202
     36 C           9.8011   80.0453   27.4899 C.3     1  UNL1        0.0345
     37 C           9.4676   77.7479   26.3811 C.ar    1  UNL1        0.0337
     38 C           8.4930   77.1387   27.1714 C.ar    1  UNL1        0.0028
     39 C           5.0415   73.8486   29.1567 C.ar    1  UNL1        0.0073
     40 C           6.2365   74.2787   29.7519 C.ar    1  UNL1       -0.0019
     41 C           7.2105   74.9308   28.9904 C.ar    1  UNL1       -0.0002
     42 C           7.0115   75.1543   27.6161 C.ar    1  UNL1       -0.0000
     43 C           5.8190   74.7056   27.0202 C.ar    1  UNL1       -0.0002
     44 C           4.8463   74.0528   27.7828 C.ar    1  UNL1       -0.0019
     45 C           4.0136   73.1125   29.9669 C.3     1  UNL1        0.1687
     46 C           4.1597   71.3585   28.4828 C.3     1  UNL1        0.1746
     47 O           3.2800   72.2642   29.1100 O.3     1  UNL1       -0.3463
@<TRIPOS>BOND
     1    46    47    1
     2    47    45    1
     3    45    39    1
     4    39    40   ar
     5    40    41   ar
     6    41    42   ar
     7    42    29    1
     8    29    30   ar
     9    30    31   ar
    10    31    32   ar
    11    32    33   ar
    12    33    34   ar
    13    34    25    1
    14    25    26    2
    15    25    27   am
    16    27     1    1
    17     1     2   ar
    18     2     3   ar
    19     3     4   ar
    20     4     7    1
    21     7     8    1
    22     8     9    1
    23     9    10    1
    24    10    13    1
    25    13    14    1
    26    14    15    1
    27    15    16   ar
    28    16    17   ar
    29    17    18   ar
    30    18    19   ar
    31    19    21    1
    32    21    22    2
    33    21    23    1
    34    19    20   ar
    35    10    11    1
    36    11    12    1
    37     4     5   ar
    38     5     6   ar
    39    34    35   ar
    40    35    36    1
    41    35    37   ar
    42    37    38   ar
    43    42    43   ar
    44    43    44   ar
    45    44    39   ar
    46    38    29   ar
    47    37    32   ar
    48     6     1   ar
    49    12     7    1
    50    20    15   ar
    51    27    28    1
    52    23    24    1
@<TRIPOS>MOLECULE
*****
 47 52 0 0 0
SMALL
GASTEIGER

@<TRIPOS>ATOM
      1 C           8.5053   78.7177   21.9801 C.ar    1  UNL1        0.0702
      2 C           7.9783   77.6078   22.6494 C.ar    1  UNL1        0.0191
      3 C           7.0364   76.7899   22.0239 C.ar    1  UNL1        0.0356
      4 C           6.6018   77.0999   20.7234 C.ar    1  UNL1        0.1318
      5 N           7.1125   78.2002   20.1022 N.ar    1  UNL1       -0.2279
      6 C           8.0345   79.0075   20.6902 C.ar    1  UNL1        0.1149
      7 N           5.6304   76.2784   20.0395 N.pl3   1  UNL1       -0.2932
      8 C           5.7982   74.8171   20.0202 C.3     1  UNL1        0.0923
      9 C           4.4291   74.1333   20.0020 C.3     1  UNL1        0.0252
     10 C           3.5711   74.5629   18.7831 C.3     1  UNL1        0.0472
     11 C           3.9846   75.9429   18.2125 C.3     1  UNL1        0.0252
     12 C           4.5183   76.8919   19.2928 C.3     1  UNL1        0.0923
     13 C           2.0732   74.5374   19.1309 C.3     1  UNL1        0.2054
     14 O           1.9010   74.6337   20.5437 O.3     1  UNL1       -0.4755
     15 C           2.0481   75.8166   21.2826 C.ar    1  UNL1        0.1388
     16 C           1.4308   77.0234   20.9050 C.ar    1  UNL1        0.0369
     17 C           1.6097   78.1741   21.6754 C.ar    1  UNL1        0.0033
     18 C           2.4018   78.1356   22.8251 C.ar    1  UNL1        0.0066
     19 C           3.0259   76.9397   23.2181 C.ar    1  UNL1        0.0785
     20 C           2.8408   75.7842   22.4367 C.ar    1  UNL1        0.0433
     21 C           3.8646   76.9010   24.4365 C.2     1  UNL1        0.3381
     22 O           4.9365   76.2373   24.4534 O.2     1  UNL1       -0.2451
     23 O           3.4773   77.5986   25.5778 O.3     1  UNL1       -0.4771
     24 H           4.0441   77.5788   26.4172 H       1  UNL1        0.2954
     25 C          10.5006   79.0759   23.5108 C.2     1  UNL1        0.2839
     26 O          10.6776   77.8380   23.6644 O.2     1  UNL1       -0.2665
     27 N           9.4568   79.5621   22.6486 N.am    1  UNL1       -0.2766
     28 H           9.3372   80.5923   22.5363 H       1  UNL1        0.1553
     29 C          13.9281   83.0775   26.4017 C.ar    1  UNL1        0.0002
     30 C          14.8835   82.0505   26.1713 C.ar    1  UNL1        0.0031
     31 C          14.5228   80.8670   25.5032 C.ar    1  UNL1        0.0375
     32 C          13.2065   80.7342   25.0755 C.ar    1  UNL1        0.1452
     33 O          12.6727   79.7194   24.4406 O.2     1  UNL1       -0.4492
     34 C          11.4020   80.0039   24.2156 C.ar    1  UNL1        0.1946
     35 C          11.0896   81.2582   24.7547 C.ar    1  UNL1        0.0202
     36 C           9.7636   81.9554   24.7958 C.3     1  UNL1        0.0345
     37 C          12.2768   81.7149   25.2905 C.ar    1  UNL1        0.0337
     38 C          12.5978   82.9007   25.9511 C.ar    1  UNL1        0.0028
     39 C          15.0760   86.6886   28.4473 C.ar    1  UNL1        0.0073
     40 C          15.0594   85.4630   29.1291 C.ar    1  UNL1       -0.0019
     41 C          14.6907   84.2897   28.4648 C.ar    1  UNL1       -0.0002
     42 C          14.3206   84.3232   27.1082 C.ar    1  UNL1       -0.0000
     43 C          14.3222   85.5573   26.4335 C.ar    1  UNL1       -0.0002
     44 C          14.6901   86.7299   27.0994 C.ar    1  UNL1       -0.0019
     45 C          15.4331   87.9542   29.1723 C.3     1  UNL1        0.1687
     46 C          13.5930   89.3348   29.2641 C.3     1  UNL1        0.1746
     47 O          14.3317   88.3552   29.9586 O.3     1  UNL1       -0.3463
@<TRIPOS>BOND
     1    46    47    1
     2    47    45    1
     3    45    39    1
     4    39    40   ar
     5    40    41   ar
     6    41    42   ar
     7    42    29    1
     8    29    30   ar
     9    30    31   ar
    10    31    32   ar
    11    32    33   ar
    12    33    34   ar
    13    34    25    1
    14    25    26    2
    15    25    27   am
    16    27     1    1
    17     1     2   ar
    18     2     3   ar
    19     3     4   ar
    20     4     7    1
    21     7     8    1
    22     8     9    1
    23     9    10    1
    24    10    13    1
    25    13    14    1
    26    14    15    1
    27    15    16   ar
    28    16    17   ar
    29    17    18   ar
    30    18    19   ar
    31    19    21    1
    32    21    22    2
    33    21    23    1
    34    19    20   ar
    35    10    11    1
    36    11    12    1
    37     4     5   ar
    38     5     6   ar
    39    34    35   ar
    40    35    36    1
    41    35    37   ar
    42    37    38   ar
    43    42    43   ar
    44    43    44   ar
    45    44    39   ar
    46    38    29   ar
    47    37    32   ar
    48     6     1   ar
    49    12     7    1
    50    20    15   ar
    51    27    28    1
    52    23    24    1
@<TRIPOS>MOLECULE
*****
 47 52 0 0 0
SMALL
GASTEIGER

@<TRIPOS>ATOM
      1 C           9.3776   79.7998   28.3612 C.ar    1  UNL1        0.0702
      2 C           8.2535   79.3690   27.6481 C.ar    1  UNL1        0.0191
      3 C           7.4684   78.3234   28.1355 C.ar    1  UNL1        0.0356
      4 C           7.8257   77.6885   29.3377 C.ar    1  UNL1        0.1318
      5 N           8.9389   78.1108   30.0010 N.ar    1  UNL1       -0.2279
      6 C           9.7149   79.1305   29.5477 C.ar    1  UNL1        0.1149
      7 N           7.0392   76.6042   29.8779 N.pl3   1  UNL1       -0.2932
      8 C           5.9300   76.8983   30.7983 C.3     1  UNL1        0.0923
      9 C           4.8165   75.8629   30.6237 C.3     1  UNL1        0.0252
     10 C           5.3133   74.4145   30.8723 C.3     1  UNL1        0.0472
     11 C           6.8399   74.2569   30.6587 C.3     1  UNL1        0.0252
     12 C           7.3856   75.2030   29.5820 C.3     1  UNL1        0.0923
     13 C           4.5302   73.4107   30.0094 C.3     1  UNL1        0.2054
     14 O           4.0604   74.0516   28.8248 O.3     1  UNL1       -0.4755
     15 C           4.8194   74.2167   27.6571 C.ar    1  UNL1        0.1388
     16 C           5.7897   73.2825   27.2499 C.ar    1  UNL1        0.0369
     17 C           6.5194   73.4941   26.0785 C.ar    1  UNL1        0.0033
     18 C           6.2917   74.6334   25.3032 C.ar    1  UNL1        0.0066
     19 C           5.3269   75.5772   25.6936 C.ar    1  UNL1        0.0785
     20 C           4.5953   75.3569   26.8753 C.ar    1  UNL1        0.0433
     21 C           5.0871   76.7834   24.8708 C.2     1  UNL1        0.3381
     22 O           5.9213   77.1339   23.9927 O.2     1  UNL1       -0.2451
     23 O           3.9359   77.5440   25.0589 O.3     1  UNL1       -0.4771
     24 H           3.7620   78.3715   24.5010 H       1  UNL1        0.2954
     25 C          11.1061   80.7072   26.7357 C.2     1  UNL1        0.2839
     26 O          11.1885   79.6100   26.1219 O.2     1  UNL1       -0.2665
     27 N          10.1878   80.8623   27.8322 N.am    1  UNL1       -0.2766
     28 H          10.1371   81.7839   28.3182 H       1  UNL1        0.1553
     29 C          14.5038   85.1762   24.5909 C.ar    1  UNL1        0.0002
     30 C          14.6913   85.3677   25.9869 C.ar    1  UNL1        0.0031
     31 C          14.0613   84.5266   26.9210 C.ar    1  UNL1        0.0375
     32 C          13.2527   83.5041   26.4373 C.ar    1  UNL1        0.1452
     33 O          12.5826   82.6195   27.1347 O.2     1  UNL1       -0.4492
     34 C          11.9535   81.8253   26.2863 C.ar    1  UNL1        0.1946
     35 C          12.2094   82.2316   24.9707 C.ar    1  UNL1        0.0202
     36 C          11.6588   81.6714   23.6943 C.3     1  UNL1        0.0345
     37 C          13.0637   83.3083   25.0963 C.ar    1  UNL1        0.0337
     38 C          13.6705   84.1238   24.1412 C.ar    1  UNL1        0.0028
     39 C          16.4401   87.7758   21.7562 C.ar    1  UNL1        0.0073
     40 C          15.8252   86.5910   21.3257 C.ar    1  UNL1       -0.0019
     41 C          15.1930   85.7486   22.2446 C.ar    1  UNL1       -0.0002
     42 C          15.1745   86.0707   23.6137 C.ar    1  UNL1       -0.0000
     43 C          15.8075   87.2512   24.0428 C.ar    1  UNL1       -0.0002
     44 C          16.4402   88.0921   23.1228 C.ar    1  UNL1       -0.0019
     45 C          17.1537   88.6594   20.7740 C.3     1  UNL1        0.1687
     46 C          19.2883   89.4183   21.1838 C.3     1  UNL1        0.1746
     47 O          18.5220   88.3134   20.7601 O.3     1  UNL1       -0.3463
@<TRIPOS>BOND
     1    46    47    1
     2    47    45    1
     3    45    39    1
     4    39    40   ar
     5    40    41   ar
     6    41    42   ar
     7    42    29    1
     8    29    30   ar
     9    30    31   ar
    10    31    32   ar
    11    32    33   ar
    12    33    34   ar
    13    34    25    1
    14    25    26    2
    15    25    27   am
    16    27     1    1
    17     1     2   ar
    18     2     3   ar
    19     3     4   ar
    20     4     7    1
    21     7     8    1
    22     8     9    1
    23     9    10    1
    24    10    13    1
    25    13    14    1
    26    14    15    1
    27    15    16   ar
    28    16    17   ar
    29    17    18   ar
    30    18    19   ar
    31    19    21    1
    32    21    22    2
    33    21    23    1
    34    19    20   ar
    35    10    11    1
    36    11    12    1
    37     4     5   ar
    38     5     6   ar
    39    34    35   ar
    40    35    36    1
    41    35    37   ar
    42    37    38   ar
    43    42    43   ar
    44    43    44   ar
    45    44    39   ar
    46    38    29   ar
    47    37    32   ar
    48     6     1   ar
    49    12     7    1
    50    20    15   ar
    51    27    28    1
    52    23    24    1
