@<TRIPOS>MOLECULE
*****
 47 52 0 0 0
SMALL
GASTEIGER

@<TRIPOS>ATOM
      1 O          62.8205   90.2364    9.2652 O.2     1  UNL1       -0.2701
      2 C          62.7679   89.3577   10.1664 C.2     1  UNL1        0.2483
      3 N          63.4459   89.5891   11.4149 N.am    1  UNL1       -0.2945
      4 H          63.9066   90.5192   11.5427 H       1  UNL1        0.1501
      5 C          62.0700   88.0905    9.8846 C.ar    1  UNL1        0.0808
      6 C          62.8136   86.9694    9.4951 C.ar    1  UNL1        0.0080
      7 C          62.1930   85.7264    9.3514 C.ar    1  UNL1        0.0148
      8 C          60.8156   85.5857    9.5918 C.ar    1  UNL1        0.0502
      9 C          60.0617   86.7286    9.9142 C.ar    1  UNL1        0.0443
     10 C          60.6811   87.9743   10.0499 C.ar    1  UNL1        0.1457
     11 F          59.9260   89.0639   10.3415 F       1  UNL1       -0.2040
     12 N          60.1889   84.2872    9.5279 N.pl3   1  UNL1       -0.3040
     13 C          58.7212   84.1801    9.5061 C.3     1  UNL1        0.1122
     14 C          58.2549   82.9527   10.2972 C.3     1  UNL1        0.1123
     15 N          59.0576   81.7679    9.9760 N.pl3   1  UNL1       -0.3034
     16 C          60.1784   81.8514    9.0383 C.3     1  UNL1        0.1123
     17 C          61.0240   83.0856    9.3596 C.3     1  UNL1        0.1122
     18 C          58.6723   80.4972   10.5129 C.ar    1  UNL1        0.0595
     19 C          57.9342   79.6087    9.7204 C.ar    1  UNL1        0.0154
     20 C          57.5471   78.3679   10.2301 C.ar    1  UNL1        0.0022
     21 C          57.8970   78.0064   11.5328 C.ar    1  UNL1        0.0123
     22 C          58.6394   78.8827   12.3329 C.ar    1  UNL1        0.0694
     23 CL         59.0650   78.3855   13.9652 Cl      1  UNL1       -0.0813
     24 C          59.0329   80.1342   11.8244 C.ar    1  UNL1        0.0815
     25 CL         59.9906   81.2377   12.8112 Cl      1  UNL1       -0.0801
     26 C          63.5548   88.5865   12.4848 C.3     1  UNL1        0.1535
     27 C          64.6437   88.9700   13.4576 C.2     1  UNL1        0.2443
     28 O          64.7146   88.3857   14.5726 O.2     1  UNL1       -0.2730
     29 N          65.6250   89.9497   13.0768 N.am    1  UNL1       -0.2825
     30 H          65.7080   90.1744   12.0592 H       1  UNL1        0.1549
     31 C          66.5325   90.6104   13.9781 C.ar    1  UNL1        0.0535
     32 C          67.9117   90.7002   13.7173 C.ar    1  UNL1        0.0353
     33 C          68.7526   91.3103   14.6513 C.ar    1  UNL1        0.1002
     34 N          68.2419   91.8086   15.8074 N.ar    1  UNL1       -0.2422
     35 C          66.9163   91.7257   16.0930 C.ar    1  UNL1        0.1002
     36 C          66.0419   91.1173   15.1901 C.ar    1  UNL1        0.0353
     37 C          62.2072   88.4197   13.2122 C.3     1  UNL1        0.0569
     38 C          61.7984   86.9754   13.2841 C.ar    1  UNL1       -0.0017
     39 C          62.6111   85.8716   13.0428 C.ar    1  UNL1        0.0681
     40 N          61.8840   84.7319   13.0841 N.ar    1  UNL1       -0.3523
     41 C          60.6179   85.1077   13.3355 C.ar    1  UNL1        0.0563
     42 C          59.4968   84.2853   13.4378 C.ar    1  UNL1        0.0170
     43 C          58.2522   84.8969   13.6754 C.ar    1  UNL1        0.0015
     44 C          58.1565   86.3010   13.7994 C.ar    1  UNL1        0.0001
     45 C          59.3046   87.1062   13.6885 C.ar    1  UNL1        0.0012
     46 C          60.5251   86.4703   13.4596 C.ar    1  UNL1        0.0131
     47 H          62.2348   83.7608   12.9278 H       1  UNL1        0.1660
@<TRIPOS>BOND
     1     1     2    2
     2     2     3   am
     3     3    26    1
     4    26    37    1
     5    37    38    1
     6    38    39   ar
     7    39    40   ar
     8    40    41   ar
     9    41    42   ar
    10    42    43   ar
    11    43    44   ar
    12    44    45   ar
    13    45    46   ar
    14    26    27    1
    15    27    28    2
    16    27    29   am
    17    29    31    1
    18    31    32   ar
    19    32    33   ar
    20    33    34   ar
    21    34    35   ar
    22    35    36   ar
    23     2     5    1
    24     5     6   ar
    25     6     7   ar
    26     7     8   ar
    27     8    12    1
    28    12    13    1
    29    13    14    1
    30    14    15    1
    31    15    18    1
    32    18    19   ar
    33    19    20   ar
    34    20    21   ar
    35    21    22   ar
    36    22    23    1
    37    22    24   ar
    38    24    25    1
    39    15    16    1
    40    16    17    1
    41     8     9   ar
    42     9    10   ar
    43    10    11    1
    44    46    38   ar
    45    36    31   ar
    46    10     5   ar
    47    46    41   ar
    48    17    12    1
    49    24    18   ar
    50     3     4    1
    51    40    47    1
    52    29    30    1
@<TRIPOS>MOLECULE
*****
 47 52 0 0 0
SMALL
GASTEIGER

@<TRIPOS>ATOM
      1 O          59.5623   82.5201    6.5280 O.2     1  UNL1       -0.2701
      2 C          59.8624   82.5583    7.7509 C.2     1  UNL1        0.2483
      3 N          59.5222   81.4420    8.5937 N.am    1  UNL1       -0.2945
      4 H          59.0903   80.6092    8.1316 H       1  UNL1        0.1501
      5 C          60.4911   83.7766    8.2915 C.ar    1  UNL1        0.0808
      6 C          59.7684   84.9763    8.2994 C.ar    1  UNL1        0.0080
      7 C          60.2907   86.1106    8.9250 C.ar    1  UNL1        0.0148
      8 C          61.5483   86.0638    9.5505 C.ar    1  UNL1        0.0502
      9 C          62.2994   84.8767    9.4785 C.ar    1  UNL1        0.0443
     10 C          61.7804   83.7438    8.8451 C.ar    1  UNL1        0.1457
     11 F          62.5356   82.6182    8.7726 F       1  UNL1       -0.2040
     12 N          62.0519   87.2082   10.2712 N.pl3   1  UNL1       -0.3040
     13 C          61.9873   88.5466    9.6623 C.3     1  UNL1        0.1122
     14 C          63.2244   89.3720   10.0338 C.3     1  UNL1        0.1123
     15 N          63.5402   89.2566   11.4615 N.pl3   1  UNL1       -0.3034
     16 C          62.7449   88.3973   12.3398 C.3     1  UNL1        0.1123
     17 C          62.5129   87.0458   11.6608 C.3     1  UNL1        0.1122
     18 C          64.5778   90.0741   12.0151 C.ar    1  UNL1        0.0595
     19 C          65.4127   90.8032   11.1584 C.ar    1  UNL1        0.0154
     20 C          66.4315   91.6014   11.6817 C.ar    1  UNL1        0.0022
     21 C          66.6208   91.6782   13.0631 C.ar    1  UNL1        0.0123
     22 C          65.7897   90.9594   13.9302 C.ar    1  UNL1        0.0694
     23 CL         66.0578   91.0896   15.6634 Cl      1  UNL1       -0.0813
     24 C          64.7609   90.1536   13.4086 C.ar    1  UNL1        0.0815
     25 CL         63.6896   89.2631   14.4893 Cl      1  UNL1       -0.0801
     26 C          59.7121   81.4300   10.0517 C.3     1  UNL1        0.1535
     27 C          58.7810   82.4175   10.7126 C.2     1  UNL1        0.2443
     28 O          57.6094   82.5595   10.2689 O.2     1  UNL1       -0.2730
     29 N          59.2181   83.1368   11.8785 N.am    1  UNL1       -0.2825
     30 H          60.0595   82.7709   12.3798 H       1  UNL1        0.1549
     31 C          58.5635   84.2911   12.4365 C.ar    1  UNL1        0.0535
     32 C          59.0415   85.5968   12.2244 C.ar    1  UNL1        0.0353
     33 C          58.3942   86.6760   12.8310 C.ar    1  UNL1        0.1002
     34 N          57.3130   86.4649   13.6261 N.ar    1  UNL1       -0.2422
     35 C          56.8358   85.2146   13.8600 C.ar    1  UNL1        0.1002
     36 C          57.4575   84.1074   13.2789 C.ar    1  UNL1        0.0353
     37 C          59.4950   80.0133   10.6162 C.3     1  UNL1        0.0569
     38 C          60.1051   79.8683   11.9819 C.ar    1  UNL1       -0.0017
     39 C          59.4684   79.4016   13.1282 C.ar    1  UNL1        0.0681
     40 N          60.2844   79.5151   14.2009 N.ar    1  UNL1       -0.3523
     41 C          61.4246   80.0617   13.7443 C.ar    1  UNL1        0.0563
     42 C          62.5551   80.4014   14.4862 C.ar    1  UNL1        0.0170
     43 C          63.6329   80.9975   13.8062 C.ar    1  UNL1        0.0015
     44 C          63.5559   81.2420   12.4169 C.ar    1  UNL1        0.0001
     45 C          62.4009   80.8912   11.6945 C.ar    1  UNL1        0.0012
     46 C          61.3517   80.2958   12.3951 C.ar    1  UNL1        0.0131
     47 H          60.0609   79.2523   15.1866 H       1  UNL1        0.1660
@<TRIPOS>BOND
     1     1     2    2
     2     2     3   am
     3     3    26    1
     4    26    37    1
     5    37    38    1
     6    38    39   ar
     7    39    40   ar
     8    40    41   ar
     9    41    42   ar
    10    42    43   ar
    11    43    44   ar
    12    44    45   ar
    13    45    46   ar
    14    26    27    1
    15    27    28    2
    16    27    29   am
    17    29    31    1
    18    31    32   ar
    19    32    33   ar
    20    33    34   ar
    21    34    35   ar
    22    35    36   ar
    23     2     5    1
    24     5     6   ar
    25     6     7   ar
    26     7     8   ar
    27     8    12    1
    28    12    13    1
    29    13    14    1
    30    14    15    1
    31    15    18    1
    32    18    19   ar
    33    19    20   ar
    34    20    21   ar
    35    21    22   ar
    36    22    23    1
    37    22    24   ar
    38    24    25    1
    39    15    16    1
    40    16    17    1
    41     8     9   ar
    42     9    10   ar
    43    10    11    1
    44    46    38   ar
    45    36    31   ar
    46    10     5   ar
    47    46    41   ar
    48    17    12    1
    49    24    18   ar
    50     3     4    1
    51    40    47    1
    52    29    30    1
@<TRIPOS>MOLECULE
*****
 47 52 0 0 0
SMALL
GASTEIGER

@<TRIPOS>ATOM
      1 O          58.6472   85.1367    7.3794 O.2     1  UNL1       -0.2701
      2 C          59.5421   84.8040    8.2013 C.2     1  UNL1        0.2483
      3 N          59.7212   83.4119    8.5208 N.am    1  UNL1       -0.2945
      4 H          59.1321   82.7228    7.9994 H       1  UNL1        0.1501
      5 C          60.3304   85.8601    8.8610 C.ar    1  UNL1        0.0808
      6 C          59.7901   86.5316    9.9650 C.ar    1  UNL1        0.0080
      7 C          60.5665   87.4407   10.6871 C.ar    1  UNL1        0.0148
      8 C          61.8969   87.6960   10.3133 C.ar    1  UNL1        0.0502
      9 C          62.4113   87.0717    9.1626 C.ar    1  UNL1        0.0443
     10 C          61.6317   86.1680    8.4349 C.ar    1  UNL1        0.1457
     11 F          62.1467   85.5960    7.3167 F       1  UNL1       -0.2040
     12 N          62.7273   88.5689   11.1079 N.pl3   1  UNL1       -0.3040
     13 C          63.0846   89.9041   10.6022 C.3     1  UNL1        0.1122
     14 C          64.5150   90.2741   11.0108 C.3     1  UNL1        0.1123
     15 N          64.7720   89.9569   12.4195 N.pl3   1  UNL1       -0.3034
     16 C          63.7447   89.3215   13.2460 C.3     1  UNL1        0.1123
     17 C          63.1079   88.1650   12.4723 C.3     1  UNL1        0.1122
     18 C          66.0093   90.3672   13.0129 C.ar    1  UNL1        0.0595
     19 C          67.1662   90.4254   12.2251 C.ar    1  UNL1        0.0154
     20 C          68.3811   90.8193   12.7890 C.ar    1  UNL1        0.0022
     21 C          68.4470   91.1597   14.1418 C.ar    1  UNL1        0.0123
     22 C          67.2971   91.1115   14.9383 C.ar    1  UNL1        0.0694
     23 CL         67.4225   91.5550   16.6356 Cl      1  UNL1       -0.0813
     24 C          66.0698   90.7159   14.3754 C.ar    1  UNL1        0.0815
     25 CL         64.6078   90.6755   15.3600 Cl      1  UNL1       -0.0801
     26 C          60.6466   82.9219    9.5530 C.3     1  UNL1        0.1535
     27 C          60.3012   81.5043    9.9404 C.2     1  UNL1        0.2443
     28 O          60.2699   80.6081    9.0541 O.2     1  UNL1       -0.2730
     29 N          60.0754   81.1797   11.3229 N.am    1  UNL1       -0.2825
     30 H          60.4059   81.8681   12.0370 H       1  UNL1        0.1549
     31 C          59.4735   79.9633   11.8032 C.ar    1  UNL1        0.0535
     32 C          58.8040   79.0716   10.9459 C.ar    1  UNL1        0.0353
     33 C          58.1963   77.9304   11.4750 C.ar    1  UNL1        0.1002
     34 N          58.2465   77.6865   12.8106 N.ar    1  UNL1       -0.2422
     35 C          58.8746   78.5356   13.6651 C.ar    1  UNL1        0.1002
     36 C          59.4889   79.6915   13.1789 C.ar    1  UNL1        0.0353
     37 C          62.1043   83.0141    9.0638 C.3     1  UNL1        0.0569
     38 C          63.0750   82.7877   10.1885 C.ar    1  UNL1       -0.0017
     39 C          64.0958   81.8422   10.2238 C.ar    1  UNL1        0.0681
     40 N          64.6970   81.8416   11.4354 N.ar    1  UNL1       -0.3523
     41 C          64.0560   82.7682   12.1688 C.ar    1  UNL1        0.0563
     42 C          64.2974   83.1082   13.4992 C.ar    1  UNL1        0.0170
     43 C          63.4792   84.0914   14.0854 C.ar    1  UNL1        0.0015
     44 C          62.4472   84.7024   13.3387 C.ar    1  UNL1        0.0001
     45 C          62.2249   84.3370   11.9986 C.ar    1  UNL1        0.0012
     46 C          63.0565   83.3642   11.4433 C.ar    1  UNL1        0.0131
     47 H          65.4837   81.2273   11.7424 H       1  UNL1        0.1660
@<TRIPOS>BOND
     1     1     2    2
     2     2     3   am
     3     3    26    1
     4    26    37    1
     5    37    38    1
     6    38    39   ar
     7    39    40   ar
     8    40    41   ar
     9    41    42   ar
    10    42    43   ar
    11    43    44   ar
    12    44    45   ar
    13    45    46   ar
    14    26    27    1
    15    27    28    2
    16    27    29   am
    17    29    31    1
    18    31    32   ar
    19    32    33   ar
    20    33    34   ar
    21    34    35   ar
    22    35    36   ar
    23     2     5    1
    24     5     6   ar
    25     6     7   ar
    26     7     8   ar
    27     8    12    1
    28    12    13    1
    29    13    14    1
    30    14    15    1
    31    15    18    1
    32    18    19   ar
    33    19    20   ar
    34    20    21   ar
    35    21    22   ar
    36    22    23    1
    37    22    24   ar
    38    24    25    1
    39    15    16    1
    40    16    17    1
    41     8     9   ar
    42     9    10   ar
    43    10    11    1
    44    46    38   ar
    45    36    31   ar
    46    10     5   ar
    47    46    41   ar
    48    17    12    1
    49    24    18   ar
    50     3     4    1
    51    40    47    1
    52    29    30    1
@<TRIPOS>MOLECULE
*****
 47 52 0 0 0
SMALL
GASTEIGER

@<TRIPOS>ATOM
      1 O          64.3668   89.4980   15.6390 O.2     1  UNL1       -0.2701
      2 C          63.9069   89.1940   14.5063 C.2     1  UNL1        0.2483
      3 N          64.1474   90.0717   13.3909 N.am    1  UNL1       -0.2945
      4 H          64.7570   90.9042   13.5614 H       1  UNL1        0.1501
      5 C          63.0780   87.9824   14.3767 C.ar    1  UNL1        0.0808
      6 C          61.6994   88.1132   14.1669 C.ar    1  UNL1        0.0080
      7 C          60.9149   86.9867   13.9093 C.ar    1  UNL1        0.0148
      8 C          61.4974   85.7087   13.8612 C.ar    1  UNL1        0.0502
      9 C          62.8693   85.5761   14.1418 C.ar    1  UNL1        0.0443
     10 C          63.6531   86.7025   14.4080 C.ar    1  UNL1        0.1457
     11 F          64.9700   86.5431   14.6959 F       1  UNL1       -0.2040
     12 N          60.7053   84.5545   13.5105 N.pl3   1  UNL1       -0.3040
     13 C          61.1716   83.2060   13.8717 C.3     1  UNL1        0.1122
     14 C          60.8114   82.1958   12.7765 C.3     1  UNL1        0.1123
     15 N          59.4294   82.3691   12.3171 N.pl3   1  UNL1       -0.3034
     16 C          58.5850   83.4341   12.8604 C.3     1  UNL1        0.1123
     17 C          59.3763   84.7431   12.9038 C.3     1  UNL1        0.1122
     18 C          58.8747   81.4198   11.3993 C.ar    1  UNL1        0.0595
     19 C          58.5394   81.8290   10.1021 C.ar    1  UNL1        0.0154
     20 C          57.9939   80.9171    9.1966 C.ar    1  UNL1        0.0022
     21 C          57.7825   79.5912    9.5803 C.ar    1  UNL1        0.0123
     22 C          58.1187   79.1681   10.8715 C.ar    1  UNL1        0.0694
     23 CL         57.8427   77.4879   11.3117 Cl      1  UNL1       -0.0813
     24 C          58.6694   80.0824   11.7882 C.ar    1  UNL1        0.0815
     25 CL         59.1222   79.5580   13.4095 Cl      1  UNL1       -0.0801
     26 C          63.5574   89.8810   12.0578 C.3     1  UNL1        0.1535
     27 C          64.3557   90.6274   11.0164 C.2     1  UNL1        0.2443
     28 O          63.8552   90.8297    9.8771 O.2     1  UNL1       -0.2730
     29 N          65.6498   91.1548   11.3554 N.am    1  UNL1       -0.2825
     30 H          65.8856   91.2301   12.3712 H       1  UNL1        0.1549
     31 C          66.6268   91.6300   10.4109 C.ar    1  UNL1        0.0535
     32 C          66.5200   92.8900    9.7952 C.ar    1  UNL1        0.0353
     33 C          67.4716   93.2791    8.8492 C.ar    1  UNL1        0.1002
     34 N          68.4908   92.4426    8.5215 N.ar    1  UNL1       -0.2422
     35 C          68.6133   91.2147    9.0897 C.ar    1  UNL1        0.1002
     36 C          67.6799   90.7837   10.0347 C.ar    1  UNL1        0.0353
     37 C          63.4732   88.3827   11.7102 C.3     1  UNL1        0.0569
     38 C          62.3517   88.1053   10.7491 C.ar    1  UNL1       -0.0017
     39 C          61.4378   89.0306   10.2535 C.ar    1  UNL1        0.0681
     40 N          60.4975   88.4108    9.5043 N.ar    1  UNL1       -0.3523
     41 C          60.8021   87.1017    9.5342 C.ar    1  UNL1        0.0563
     42 C          60.1014   86.0572    8.9329 C.ar    1  UNL1        0.0170
     43 C          60.5826   84.7485    9.1210 C.ar    1  UNL1        0.0015
     44 C          61.7375   84.5155    9.9006 C.ar    1  UNL1        0.0001
     45 C          62.4226   85.5891   10.4980 C.ar    1  UNL1        0.0012
     46 C          61.9252   86.8754   10.2878 C.ar    1  UNL1        0.0131
     47 H          59.6871   88.8594    9.0221 H       1  UNL1        0.1660
@<TRIPOS>BOND
     1     1     2    2
     2     2     3   am
     3     3    26    1
     4    26    37    1
     5    37    38    1
     6    38    39   ar
     7    39    40   ar
     8    40    41   ar
     9    41    42   ar
    10    42    43   ar
    11    43    44   ar
    12    44    45   ar
    13    45    46   ar
    14    26    27    1
    15    27    28    2
    16    27    29   am
    17    29    31    1
    18    31    32   ar
    19    32    33   ar
    20    33    34   ar
    21    34    35   ar
    22    35    36   ar
    23     2     5    1
    24     5     6   ar
    25     6     7   ar
    26     7     8   ar
    27     8    12    1
    28    12    13    1
    29    13    14    1
    30    14    15    1
    31    15    18    1
    32    18    19   ar
    33    19    20   ar
    34    20    21   ar
    35    21    22   ar
    36    22    23    1
    37    22    24   ar
    38    24    25    1
    39    15    16    1
    40    16    17    1
    41     8     9   ar
    42     9    10   ar
    43    10    11    1
    44    46    38   ar
    45    36    31   ar
    46    10     5   ar
    47    46    41   ar
    48    17    12    1
    49    24    18   ar
    50     3     4    1
    51    40    47    1
    52    29    30    1
@<TRIPOS>MOLECULE
*****
 47 52 0 0 0
SMALL
GASTEIGER

@<TRIPOS>ATOM
      1 O          60.2810   82.5862    5.3114 O.2     1  UNL1       -0.2701
      2 C          60.2248   82.3941    6.5552 C.2     1  UNL1        0.2483
      3 N          59.7849   81.1161    7.0503 N.am    1  UNL1       -0.2945
      4 H          59.5888   80.3717    6.3424 H       1  UNL1        0.1501
      5 C          60.5462   83.5100    7.4627 C.ar    1  UNL1        0.0808
      6 C          59.5118   84.1487    8.1582 C.ar    1  UNL1        0.0080
      7 C          59.8023   85.1177    9.1212 C.ar    1  UNL1        0.0148
      8 C          61.1345   85.4666    9.4016 C.ar    1  UNL1        0.0502
      9 C          62.1651   84.8726    8.6507 C.ar    1  UNL1        0.0443
     10 C          61.8739   83.9089    7.6810 C.ar    1  UNL1        0.1457
     11 F          62.8865   83.3674    6.9570 F       1  UNL1       -0.2040
     12 N          61.4409   86.4038   10.4553 N.pl3   1  UNL1       -0.3040
     13 C          61.1144   87.8292   10.2887 C.3     1  UNL1        0.1122
     14 C          62.1897   88.7112   10.9333 C.3     1  UNL1        0.1123
     15 N          62.5632   88.2198   12.2638 N.pl3   1  UNL1       -0.3034
     16 C          61.9648   87.0005   12.8096 C.3     1  UNL1        0.1123
     17 C          61.9644   85.9069   11.7393 C.3     1  UNL1        0.1122
     18 C          63.4492   89.0014   13.0733 C.ar    1  UNL1        0.0595
     19 C          63.3523   88.9299   14.4690 C.ar    1  UNL1        0.0154
     20 C          64.2056   89.6885   15.2724 C.ar    1  UNL1        0.0022
     21 C          65.1620   90.5206   14.6868 C.ar    1  UNL1        0.0123
     22 C          65.2732   90.5966   13.2936 C.ar    1  UNL1        0.0694
     23 CL         66.4959   91.6516   12.5971 Cl      1  UNL1       -0.0813
     24 C          64.4164   89.8339   12.4788 C.ar    1  UNL1        0.0815
     25 CL         64.5619   89.8992   10.7229 Cl      1  UNL1       -0.0801
     26 C          59.5637   80.8223    8.4738 C.3     1  UNL1        0.1535
     27 C          60.8754   80.8185    9.2212 C.2     1  UNL1        0.2443
     28 O          61.6491   79.8289    9.1130 O.2     1  UNL1       -0.2730
     29 N          61.2564   81.9690    9.9951 N.am    1  UNL1       -0.2825
     30 H          60.7434   82.8613    9.8117 H       1  UNL1        0.1549
     31 C          62.3174   82.0019   10.9676 C.ar    1  UNL1        0.0535
     32 C          63.6485   82.2850   10.6122 C.ar    1  UNL1        0.0353
     33 C          64.6454   82.2551   11.5904 C.ar    1  UNL1        0.1002
     34 N          64.3320   81.9483   12.8762 N.ar    1  UNL1       -0.2422
     35 C          63.0578   81.6580   13.2474 C.ar    1  UNL1        0.1002
     36 C          62.0322   81.6696   12.2999 C.ar    1  UNL1        0.0353
     37 C          58.5860   81.8389    9.0929 C.3     1  UNL1        0.0569
     38 C          58.4673   81.6500   10.5791 C.ar    1  UNL1       -0.0017
     39 C          58.4674   82.6530   11.5441 C.ar    1  UNL1        0.0681
     40 N          58.4606   82.1143   12.7848 N.ar    1  UNL1       -0.3523
     41 C          58.4700   80.7812   12.6112 C.ar    1  UNL1        0.0563
     42 C          58.4997   79.8004   13.6016 C.ar    1  UNL1        0.0170
     43 C          58.5387   78.4546   13.1930 C.ar    1  UNL1        0.0015
     44 C          58.5515   78.1233   11.8197 C.ar    1  UNL1        0.0001
     45 C          58.5239   79.1347   10.8423 C.ar    1  UNL1        0.0012
     46 C          58.4787   80.4591   11.2783 C.ar    1  UNL1        0.0131
     47 H          58.4703   82.6328   13.6912 H       1  UNL1        0.1660
@<TRIPOS>BOND
     1     1     2    2
     2     2     3   am
     3     3    26    1
     4    26    37    1
     5    37    38    1
     6    38    39   ar
     7    39    40   ar
     8    40    41   ar
     9    41    42   ar
    10    42    43   ar
    11    43    44   ar
    12    44    45   ar
    13    45    46   ar
    14    26    27    1
    15    27    28    2
    16    27    29   am
    17    29    31    1
    18    31    32   ar
    19    32    33   ar
    20    33    34   ar
    21    34    35   ar
    22    35    36   ar
    23     2     5    1
    24     5     6   ar
    25     6     7   ar
    26     7     8   ar
    27     8    12    1
    28    12    13    1
    29    13    14    1
    30    14    15    1
    31    15    18    1
    32    18    19   ar
    33    19    20   ar
    34    20    21   ar
    35    21    22   ar
    36    22    23    1
    37    22    24   ar
    38    24    25    1
    39    15    16    1
    40    16    17    1
    41     8     9   ar
    42     9    10   ar
    43    10    11    1
    44    46    38   ar
    45    36    31   ar
    46    10     5   ar
    47    46    41   ar
    48    17    12    1
    49    24    18   ar
    50     3     4    1
    51    40    47    1
    52    29    30    1
@<TRIPOS>MOLECULE
*****
 47 52 0 0 0
SMALL
GASTEIGER

@<TRIPOS>ATOM
      1 O          64.4508   89.2633   15.5298 O.2     1  UNL1       -0.2701
      2 C          63.9213   88.9936   14.4190 C.2     1  UNL1        0.2483
      3 N          64.1131   89.8931   13.3116 N.am    1  UNL1       -0.2945
      4 H          64.7464   90.7111   13.4652 H       1  UNL1        0.1501
      5 C          63.0646   87.7994   14.3103 C.ar    1  UNL1        0.0808
      6 C          61.6942   87.9575   14.0681 C.ar    1  UNL1        0.0080
      7 C          60.8867   86.8431   13.8298 C.ar    1  UNL1        0.0148
      8 C          61.4374   85.5502   13.8338 C.ar    1  UNL1        0.0502
      9 C          62.7997   85.3927   14.1468 C.ar    1  UNL1        0.0443
     10 C          63.6063   86.5073   14.3936 C.ar    1  UNL1        0.1457
     11 F          64.9128   86.3246   14.7135 F       1  UNL1       -0.2040
     12 N          60.6234   84.4053   13.5032 N.pl3   1  UNL1       -0.3040
     13 C          61.0035   83.0688   13.9882 C.3     1  UNL1        0.1122
     14 C          60.6799   81.9986   12.9396 C.3     1  UNL1        0.1123
     15 N          59.3434   82.1919   12.3672 N.pl3   1  UNL1       -0.3034
     16 C          58.5090   83.3240   12.7728 C.3     1  UNL1        0.1123
     17 C          59.3511   84.6016   12.7873 C.3     1  UNL1        0.1122
     18 C          58.8158   81.2023   11.4764 C.ar    1  UNL1        0.0595
     19 C          58.5187   79.9232   11.9643 C.ar    1  UNL1        0.0154
     20 C          58.0078   78.9458   11.1083 C.ar    1  UNL1        0.0022
     21 C          57.7882   79.2409    9.7611 C.ar    1  UNL1        0.0123
     22 C          58.0752   80.5168    9.2624 C.ar    1  UNL1        0.0694
     23 CL         57.7773   80.8487    7.5612 Cl      1  UNL1       -0.0813
     24 C          58.5897   81.5061   10.1205 C.ar    1  UNL1        0.0815
     25 CL         58.9314   83.1255    9.5126 Cl      1  UNL1       -0.0801
     26 C          63.4443   89.7435   12.0108 C.3     1  UNL1        0.1535
     27 C          64.2156   90.4695   10.9351 C.2     1  UNL1        0.2443
     28 O          63.7298   90.5583    9.7750 O.2     1  UNL1       -0.2730
     29 N          65.4631   91.1061   11.2609 N.am    1  UNL1       -0.2825
     30 H          65.6690   91.2669   12.2732 H       1  UNL1        0.1549
     31 C          66.4283   91.5809   10.3041 C.ar    1  UNL1        0.0535
     32 C          67.5567   90.8234    9.9420 C.ar    1  UNL1        0.0353
     33 C          68.4862   91.3552    9.0449 C.ar    1  UNL1        0.1002
     34 N          68.3044   92.5992    8.5300 N.ar    1  UNL1       -0.2422
     35 C          67.2314   93.3596    8.8705 C.ar    1  UNL1        0.1002
     36 C          66.2820   92.8690    9.7694 C.ar    1  UNL1        0.0353
     37 C          63.2790   88.2544   11.6529 C.3     1  UNL1        0.0569
     38 C          62.2251   88.0577   10.5998 C.ar    1  UNL1       -0.0017
     39 C          61.0948   88.8453   10.4020 C.ar    1  UNL1        0.0681
     40 N          60.3082   88.3092    9.4410 N.ar    1  UNL1       -0.3523
     41 C          60.9251   87.1838    9.0407 C.ar    1  UNL1        0.0563
     42 C          60.4800   86.2697    8.0867 C.ar    1  UNL1        0.0170
     43 C          61.2737   85.1337    7.8442 C.ar    1  UNL1        0.0015
     44 C          62.4783   84.9367    8.5555 C.ar    1  UNL1        0.0001
     45 C          62.9011   85.8747    9.5148 C.ar    1  UNL1        0.0012
     46 C          62.0963   86.9941    9.7283 C.ar    1  UNL1        0.0131
     47 H          59.3954   88.6843    9.0994 H       1  UNL1        0.1660
@<TRIPOS>BOND
     1     1     2    2
     2     2     3   am
     3     3    26    1
     4    26    37    1
     5    37    38    1
     6    38    39   ar
     7    39    40   ar
     8    40    41   ar
     9    41    42   ar
    10    42    43   ar
    11    43    44   ar
    12    44    45   ar
    13    45    46   ar
    14    26    27    1
    15    27    28    2
    16    27    29   am
    17    29    31    1
    18    31    32   ar
    19    32    33   ar
    20    33    34   ar
    21    34    35   ar
    22    35    36   ar
    23     2     5    1
    24     5     6   ar
    25     6     7   ar
    26     7     8   ar
    27     8    12    1
    28    12    13    1
    29    13    14    1
    30    14    15    1
    31    15    18    1
    32    18    19   ar
    33    19    20   ar
    34    20    21   ar
    35    21    22   ar
    36    22    23    1
    37    22    24   ar
    38    24    25    1
    39    15    16    1
    40    16    17    1
    41     8     9   ar
    42     9    10   ar
    43    10    11    1
    44    46    38   ar
    45    36    31   ar
    46    10     5   ar
    47    46    41   ar
    48    17    12    1
    49    24    18   ar
    50     3     4    1
    51    40    47    1
    52    29    30    1
@<TRIPOS>MOLECULE
*****
 47 52 0 0 0
SMALL
GASTEIGER

@<TRIPOS>ATOM
      1 O          63.3876   90.1920   16.3910 O.2     1  UNL1       -0.2701
      2 C          63.6122   89.6053   15.2990 C.2     1  UNL1        0.2483
      3 N          64.4316   90.2526   14.3083 N.am    1  UNL1       -0.2945
      4 H          64.8625   91.1689   14.5698 H       1  UNL1        0.1501
      5 C          62.9697   88.3033   15.0456 C.ar    1  UNL1        0.0808
      6 C          61.5751   88.1997   15.1221 C.ar    1  UNL1        0.0080
      7 C          60.9347   87.0131   14.7577 C.ar    1  UNL1        0.0148
      8 C          61.6810   85.9080   14.3141 C.ar    1  UNL1        0.0502
      9 C          63.0848   85.9948   14.3063 C.ar    1  UNL1        0.0443
     10 C          63.7263   87.1796   14.6789 C.ar    1  UNL1        0.1457
     11 F          65.0829   87.2284   14.6817 F       1  UNL1       -0.2040
     12 N          61.0172   84.7113   13.8557 N.pl3   1  UNL1       -0.3040
     13 C          61.7740   83.4558   13.7243 C.3     1  UNL1        0.1122
     14 C          61.2906   82.6555   12.5097 C.3     1  UNL1        0.1123
     15 N          59.8262   82.6115   12.4415 N.pl3   1  UNL1       -0.3034
     16 C          59.0067   83.3153   13.4291 C.3     1  UNL1        0.1123
     17 C          59.5599   84.7260   13.6418 C.3     1  UNL1        0.1122
     18 C          59.1979   81.7866   11.4535 C.ar    1  UNL1        0.0595
     19 C          58.9013   82.3233   10.1940 C.ar    1  UNL1        0.0154
     20 C          58.2851   81.5339    9.2212 C.ar    1  UNL1        0.0022
     21 C          57.9641   80.2037    9.4997 C.ar    1  UNL1        0.0123
     22 C          58.2605   79.6536   10.7522 C.ar    1  UNL1        0.0694
     23 CL         57.8457   77.9724   11.0593 Cl      1  UNL1       -0.0813
     24 C          58.8820   80.4442   11.7364 C.ar    1  UNL1        0.0815
     25 CL         59.2851   79.7577   13.3095 Cl      1  UNL1       -0.0801
     26 C          64.6573   89.7183   12.9572 C.3     1  UNL1        0.1535
     27 C          63.3415   89.3920   12.2930 C.2     1  UNL1        0.2443
     28 O          62.3180   90.0724   12.5743 O.2     1  UNL1       -0.2730
     29 N          63.2840   88.3527   11.3008 N.am    1  UNL1       -0.2825
     30 H          64.1899   88.0344   10.8872 H       1  UNL1        0.1549
     31 C          62.0773   87.7493   10.7986 C.ar    1  UNL1        0.0535
     32 C          60.9939   88.5179   10.3359 C.ar    1  UNL1        0.0353
     33 C          59.8285   87.8791    9.9052 C.ar    1  UNL1        0.1002
     34 N          59.7399   86.5238    9.9388 N.ar    1  UNL1       -0.2422
     35 C          60.7646   85.7555   10.3921 C.ar    1  UNL1        0.1002
     36 C          61.9447   86.3539   10.8385 C.ar    1  UNL1        0.0353
     37 C          65.4653   90.7162   12.1063 C.3     1  UNL1        0.0569
     38 C          66.9097   90.7454   12.5202 C.ar    1  UNL1       -0.0017
     39 C          67.9942   90.2923   11.7747 C.ar    1  UNL1        0.0681
     40 N          69.1316   90.3664   12.5029 N.ar    1  UNL1       -0.3523
     41 C          68.7723   90.8490   13.7052 C.ar    1  UNL1        0.0563
     42 C          69.5969   91.0714   14.8072 C.ar    1  UNL1        0.0170
     43 C          69.0015   91.5545   15.9869 C.ar    1  UNL1        0.0015
     44 C          67.6108   91.7974   16.0395 C.ar    1  UNL1        0.0001
     45 C          66.8029   91.5609   14.9124 C.ar    1  UNL1        0.0012
     46 C          67.4230   91.0885   13.7555 C.ar    1  UNL1        0.0131
     47 H          70.0889   90.0825   12.1973 H       1  UNL1        0.1660
@<TRIPOS>BOND
     1     1     2    2
     2     2     3   am
     3     3    26    1
     4    26    37    1
     5    37    38    1
     6    38    39   ar
     7    39    40   ar
     8    40    41   ar
     9    41    42   ar
    10    42    43   ar
    11    43    44   ar
    12    44    45   ar
    13    45    46   ar
    14    26    27    1
    15    27    28    2
    16    27    29   am
    17    29    31    1
    18    31    32   ar
    19    32    33   ar
    20    33    34   ar
    21    34    35   ar
    22    35    36   ar
    23     2     5    1
    24     5     6   ar
    25     6     7   ar
    26     7     8   ar
    27     8    12    1
    28    12    13    1
    29    13    14    1
    30    14    15    1
    31    15    18    1
    32    18    19   ar
    33    19    20   ar
    34    20    21   ar
    35    21    22   ar
    36    22    23    1
    37    22    24   ar
    38    24    25    1
    39    15    16    1
    40    16    17    1
    41     8     9   ar
    42     9    10   ar
    43    10    11    1
    44    46    38   ar
    45    36    31   ar
    46    10     5   ar
    47    46    41   ar
    48    17    12    1
    49    24    18   ar
    50     3     4    1
    51    40    47    1
    52    29    30    1
@<TRIPOS>MOLECULE
*****
 47 52 0 0 0
SMALL
GASTEIGER

@<TRIPOS>ATOM
      1 O          63.1366   80.1761   15.4637 O.2     1  UNL1       -0.2701
      2 C          62.3299   80.7570   14.6899 C.2     1  UNL1        0.2483
      3 N          61.2831   79.9933   14.0628 N.am    1  UNL1       -0.2945
      4 H          61.2001   78.9862   14.3322 H       1  UNL1        0.1501
      5 C          62.5285   82.1880   14.3988 C.ar    1  UNL1        0.0808
      6 C          61.5350   83.1065   14.7611 C.ar    1  UNL1        0.0080
      7 C          61.7558   84.4781   14.6169 C.ar    1  UNL1        0.0148
      8 C          62.9746   84.9534   14.1035 C.ar    1  UNL1        0.0502
      9 C          63.9407   84.0245   13.6763 C.ar    1  UNL1        0.0443
     10 C          63.7165   82.6516   13.8127 C.ar    1  UNL1        0.1457
     11 F          64.6574   81.7775   13.3730 F       1  UNL1       -0.2040
     12 N          63.2382   86.3706   14.0340 N.pl3   1  UNL1       -0.3040
     13 C          62.4843   87.2128   13.0914 C.3     1  UNL1        0.1122
     14 C          63.3801   88.3128   12.5106 C.3     1  UNL1        0.1123
     15 N          64.1838   88.9595   13.5532 N.pl3   1  UNL1       -0.3034
     16 C          64.1102   88.5115   14.9447 C.3     1  UNL1        0.1123
     17 C          64.1718   86.9834   14.9946 C.3     1  UNL1        0.1122
     18 C          64.9721   90.1067   13.2158 C.ar    1  UNL1        0.0595
     19 C          65.6639   90.7893   14.2248 C.ar    1  UNL1        0.0154
     20 C          66.4332   91.9119   13.9135 C.ar    1  UNL1        0.0022
     21 C          66.5183   92.3576   12.5928 C.ar    1  UNL1        0.0123
     22 C          65.8368   91.6810   11.5745 C.ar    1  UNL1        0.0694
     23 CL         65.9764   92.2714    9.9237 Cl      1  UNL1       -0.0813
     24 C          65.0603   90.5487   11.8821 C.ar    1  UNL1        0.0815
     25 CL         64.2174   89.6707   10.6065 Cl      1  UNL1       -0.0801
     26 C          60.3659   80.5389   13.0515 C.3     1  UNL1        0.1535
     27 C          61.1111   80.8453   11.7748 C.2     1  UNL1        0.2443
     28 O          61.7576   79.9294   11.1978 O.2     1  UNL1       -0.2730
     29 N          61.0226   82.1592   11.1974 N.am    1  UNL1       -0.2825
     30 H          60.2499   82.7787   11.5320 H       1  UNL1        0.1549
     31 C          61.8832   82.6721   10.1635 C.ar    1  UNL1        0.0535
     32 C          63.2849   82.6443   10.2758 C.ar    1  UNL1        0.0353
     33 C          64.0698   83.2007    9.2628 C.ar    1  UNL1        0.1002
     34 N          63.4823   83.7707    8.1785 N.ar    1  UNL1       -0.2422
     35 C          62.1311   83.8239    8.0479 C.ar    1  UNL1        0.1002
     36 C          61.3096   83.2859    9.0406 C.ar    1  UNL1        0.0353
     37 C          59.2065   79.5603   12.7851 C.3     1  UNL1        0.0569
     38 C          58.5583   79.8276   11.4559 C.ar    1  UNL1       -0.0017
     39 C          58.3767   78.9116   10.4239 C.ar    1  UNL1        0.0681
     40 N          57.8644   79.5251    9.3328 N.ar    1  UNL1       -0.3523
     41 C          57.7341   80.8219    9.6625 C.ar    1  UNL1        0.0563
     42 C          57.2756   81.8584    8.8504 C.ar    1  UNL1        0.0170
     43 C          57.2515   83.1566    9.3922 C.ar    1  UNL1        0.0015
     44 C          57.6852   83.3878   10.7167 C.ar    1  UNL1        0.0001
     45 C          58.1457   82.3228   11.5121 C.ar    1  UNL1        0.0012
     46 C          58.1515   81.0463   10.9493 C.ar    1  UNL1        0.0131
     47 H          57.6397   79.0818    8.4144 H       1  UNL1        0.1660
@<TRIPOS>BOND
     1     1     2    2
     2     2     3   am
     3     3    26    1
     4    26    37    1
     5    37    38    1
     6    38    39   ar
     7    39    40   ar
     8    40    41   ar
     9    41    42   ar
    10    42    43   ar
    11    43    44   ar
    12    44    45   ar
    13    45    46   ar
    14    26    27    1
    15    27    28    2
    16    27    29   am
    17    29    31    1
    18    31    32   ar
    19    32    33   ar
    20    33    34   ar
    21    34    35   ar
    22    35    36   ar
    23     2     5    1
    24     5     6   ar
    25     6     7   ar
    26     7     8   ar
    27     8    12    1
    28    12    13    1
    29    13    14    1
    30    14    15    1
    31    15    18    1
    32    18    19   ar
    33    19    20   ar
    34    20    21   ar
    35    21    22   ar
    36    22    23    1
    37    22    24   ar
    38    24    25    1
    39    15    16    1
    40    16    17    1
    41     8     9   ar
    42     9    10   ar
    43    10    11    1
    44    46    38   ar
    45    36    31   ar
    46    10     5   ar
    47    46    41   ar
    48    17    12    1
    49    24    18   ar
    50     3     4    1
    51    40    47    1
    52    29    30    1
@<TRIPOS>MOLECULE
*****
 47 52 0 0 0
SMALL
GASTEIGER

@<TRIPOS>ATOM
      1 O          61.2314   77.4452   12.5331 O.2     1  UNL1       -0.2701
      2 C          60.8668   78.5122   11.9714 C.2     1  UNL1        0.2483
      3 N          60.0594   78.4405   10.7818 N.am    1  UNL1       -0.2945
      4 H          59.7542   77.4905   10.4686 H       1  UNL1        0.1501
      5 C          61.3385   79.7989   12.5136 C.ar    1  UNL1        0.0808
      6 C          62.4266   80.4409   11.9090 C.ar    1  UNL1        0.0080
      7 C          62.8079   81.7203   12.3195 C.ar    1  UNL1        0.0148
      8 C          62.1079   82.3775   13.3457 C.ar    1  UNL1        0.0502
      9 C          61.0609   81.6999   13.9962 C.ar    1  UNL1        0.0443
     10 C          60.6846   80.4160   13.5912 C.ar    1  UNL1        0.1457
     11 F          59.6843   79.7776   14.2504 F       1  UNL1       -0.2040
     12 N          62.4449   83.7320   13.7124 N.pl3   1  UNL1       -0.3040
     13 C          61.3766   84.7127   13.9634 C.3     1  UNL1        0.1122
     14 C          61.7862   86.1018   13.4612 C.3     1  UNL1        0.1123
     15 N          63.1600   86.4332   13.8538 N.pl3   1  UNL1       -0.3034
     16 C          63.9822   85.4740   14.5929 C.3     1  UNL1        0.1123
     17 C          63.8533   84.0896   13.9539 C.3     1  UNL1        0.1122
     18 C          63.6617   87.7495   13.5949 C.ar    1  UNL1        0.0595
     19 C          64.3576   88.4326   14.6007 C.ar    1  UNL1        0.0154
     20 C          64.8495   89.7179   14.3660 C.ar    1  UNL1        0.0022
     21 C          64.6515   90.3272   13.1252 C.ar    1  UNL1        0.0123
     22 C          63.9631   89.6531   12.1099 C.ar    1  UNL1        0.0694
     23 CL         63.7418   90.4538   10.5597 Cl      1  UNL1       -0.0813
     24 C          63.4656   88.3573   12.3403 C.ar    1  UNL1        0.0815
     25 CL         62.6194   87.4856   11.0626 Cl      1  UNL1       -0.0801
     26 C          59.6817   79.6119    9.9776 C.3     1  UNL1        0.1535
     27 C          58.9951   80.6438   10.8395 C.2     1  UNL1        0.2443
     28 O          57.9479   80.3308   11.4680 O.2     1  UNL1       -0.2730
     29 N          59.5775   81.9504   10.9850 N.am    1  UNL1       -0.2825
     30 H          60.5779   82.0633   10.7031 H       1  UNL1        0.1549
     31 C          58.9082   83.1024   11.5304 C.ar    1  UNL1        0.0535
     32 C          59.0976   84.3942   11.0072 C.ar    1  UNL1        0.0353
     33 C          58.4598   85.4825   11.6076 C.ar    1  UNL1        0.1002
     34 N          57.6661   85.2949   12.6942 N.ar    1  UNL1       -0.2422
     35 C          57.4739   84.0612   13.2297 C.ar    1  UNL1        0.1002
     36 C          58.0983   82.9473   12.6647 C.ar    1  UNL1        0.0353
     37 C          60.9172   80.2156    9.2834 C.3     1  UNL1        0.0569
     38 C          60.5611   81.4548    8.5114 C.ar    1  UNL1       -0.0017
     39 C          59.6023   81.5586    7.5079 C.ar    1  UNL1        0.0681
     40 N          59.6303   82.7921    6.9539 N.ar    1  UNL1       -0.3523
     41 C          60.6070   83.4628    7.5892 C.ar    1  UNL1        0.0563
     42 C          61.0341   84.7671    7.3439 C.ar    1  UNL1        0.0170
     43 C          62.1037   85.2639    8.1111 C.ar    1  UNL1        0.0015
     44 C          62.7182   84.4538    9.0919 C.ar    1  UNL1        0.0001
     45 C          62.2678   83.1400    9.3156 C.ar    1  UNL1        0.0012
     46 C          61.2013   82.6781    8.5440 C.ar    1  UNL1        0.0131
     47 H          59.0293   83.1408    6.1743 H       1  UNL1        0.1660
@<TRIPOS>BOND
     1     1     2    2
     2     2     3   am
     3     3    26    1
     4    26    37    1
     5    37    38    1
     6    38    39   ar
     7    39    40   ar
     8    40    41   ar
     9    41    42   ar
    10    42    43   ar
    11    43    44   ar
    12    44    45   ar
    13    45    46   ar
    14    26    27    1
    15    27    28    2
    16    27    29   am
    17    29    31    1
    18    31    32   ar
    19    32    33   ar
    20    33    34   ar
    21    34    35   ar
    22    35    36   ar
    23     2     5    1
    24     5     6   ar
    25     6     7   ar
    26     7     8   ar
    27     8    12    1
    28    12    13    1
    29    13    14    1
    30    14    15    1
    31    15    18    1
    32    18    19   ar
    33    19    20   ar
    34    20    21   ar
    35    21    22   ar
    36    22    23    1
    37    22    24   ar
    38    24    25    1
    39    15    16    1
    40    16    17    1
    41     8     9   ar
    42     9    10   ar
    43    10    11    1
    44    46    38   ar
    45    36    31   ar
    46    10     5   ar
    47    46    41   ar
    48    17    12    1
    49    24    18   ar
    50     3     4    1
    51    40    47    1
    52    29    30    1
