@<TRIPOS>MOLECULE
*****
 45 50 0 0 0
SMALL
GASTEIGER

@<TRIPOS>ATOM
      1 C          12.0407   81.0853   25.2288 C.ar    1  UNL1        0.0702
      2 C          13.4383   81.1665   25.3277 C.ar    1  UNL1        0.0191
      3 C          14.1084   82.3059   24.8797 C.ar    1  UNL1        0.0356
      4 C          13.3753   83.3785   24.3425 C.ar    1  UNL1        0.1318
      5 N          12.0179   83.2794   24.2721 N.ar    1  UNL1       -0.2279
      6 C          11.3447   82.1799   24.7019 C.ar    1  UNL1        0.1149
      7 N          14.0316   84.5746   23.8671 N.pl3   1  UNL1       -0.2932
      8 C          15.0371   84.4785   22.7978 C.3     1  UNL1        0.0923
      9 C          16.1208   85.5426   22.9966 C.3     1  UNL1        0.0252
     10 C          15.5446   86.9830   23.0709 C.3     1  UNL1        0.0472
     11 C          14.0305   87.0093   23.3905 C.3     1  UNL1        0.0252
     12 C          13.6311   85.9002   24.3696 C.3     1  UNL1        0.0923
     13 C          15.8368   87.7608   21.7772 C.3     1  UNL1        0.2054
     14 O          14.6974   87.7231   20.9202 O.3     1  UNL1       -0.4750
     15 C          14.3880   86.6702   20.0459 C.ar    1  UNL1        0.1440
     16 C          15.3655   85.7650   19.5854 C.ar    1  UNL1        0.0438
     17 C          15.0202   84.7216   18.7064 C.ar    1  UNL1        0.0785
     18 C          13.6799   84.5822   18.3086 C.ar    1  UNL1        0.0071
     19 C          12.7095   85.4770   18.7623 C.ar    1  UNL1        0.0090
     20 C          13.0595   86.5187   19.6242 C.ar    1  UNL1        0.0640
     21 I          11.5564   87.8494   20.2905 I       1  UNL1       -0.0394
     22 C          16.0397   83.7616   18.2170 C.2     1  UNL1        0.3381
     23 O          16.7416   84.0536   17.2123 O.2     1  UNL1       -0.2451
     24 O          16.2609   82.5387   18.8498 O.3     1  UNL1       -0.4771
     25 H          15.8114   82.2860   19.7203 H       1  UNL1        0.2954
     26 C          10.3275   79.9928   26.7438 C.2     1  UNL1        0.2839
     27 O          10.3791   80.9039   27.6131 O.2     1  UNL1       -0.2665
     28 N          11.3136   79.9385   25.7020 N.am    1  UNL1       -0.2766
     29 H          11.5941   78.9974   25.3460 H       1  UNL1        0.1553
     30 C           9.6700   78.1751   29.3368 C.3     1  UNL1        0.0345
     31 C           9.0024   78.1670   27.9946 C.ar    1  UNL1        0.0202
     32 C           9.2942   78.9500   26.8706 C.ar    1  UNL1        0.1946
     33 O           8.4966   78.6189   25.8703 O.2     1  UNL1       -0.4492
     34 C           7.6882   77.6782   26.2938 C.ar    1  UNL1        0.1452
     35 C           6.6826   77.0409   25.5753 C.ar    1  UNL1        0.0375
     36 C           5.9273   76.0532   26.2313 C.ar    1  UNL1        0.0031
     37 C           6.1862   75.7192   27.5883 C.ar    1  UNL1        0.0002
     38 C           7.2201   76.3920   28.2829 C.ar    1  UNL1        0.0028
     39 C           7.9494   77.3658   27.6001 C.ar    1  UNL1        0.0337
     40 C           5.3810   74.6751   28.2715 C.ar    1  UNL1        0.0000
     41 C           5.3742   73.3504   27.7947 C.ar    1  UNL1        0.0000
     42 C           4.6149   72.3693   28.4398 C.ar    1  UNL1        0.0000
     43 C           3.8548   72.6979   29.5643 C.ar    1  UNL1        0.0000
     44 C           3.8525   74.0086   30.0466 C.ar    1  UNL1        0.0000
     45 C           4.6106   74.9936   29.4061 C.ar    1  UNL1        0.0000
@<TRIPOS>BOND
     1    30    31    1
     2    31    32   ar
     3    32    26    1
     4    26    27    2
     5    26    28   am
     6    28     1    1
     7     1     2   ar
     8     2     3   ar
     9     3     4   ar
    10     4     7    1
    11     7     8    1
    12     8     9    1
    13     9    10    1
    14    10    13    1
    15    13    14    1
    16    14    15    1
    17    15    16   ar
    18    16    17   ar
    19    17    22    1
    20    22    23    2
    21    22    24    1
    22    17    18   ar
    23    18    19   ar
    24    19    20   ar
    25    20    21    1
    26    10    11    1
    27    11    12    1
    28     4     5   ar
    29     5     6   ar
    30    32    33   ar
    31    33    34   ar
    32    34    35   ar
    33    35    36   ar
    34    36    37   ar
    35    37    40    1
    36    40    41   ar
    37    41    42   ar
    38    42    43   ar
    39    43    44   ar
    40    44    45   ar
    41    37    38   ar
    42    38    39   ar
    43    39    31   ar
    44     6     1   ar
    45    39    34   ar
    46    12     7    1
    47    45    40   ar
    48    20    15   ar
    49    28    29    1
    50    24    25    1
@<TRIPOS>MOLECULE
*****
 45 50 0 0 0
SMALL
GASTEIGER

@<TRIPOS>ATOM
      1 C          11.9403   80.4306   24.8587 C.ar    1  UNL1        0.0702
      2 C          13.3409   80.4715   24.9381 C.ar    1  UNL1        0.0191
      3 C          14.0276   81.6448   24.6219 C.ar    1  UNL1        0.0356
      4 C          13.3087   82.7902   24.2381 C.ar    1  UNL1        0.1318
      5 N          11.9484   82.7273   24.1839 N.ar    1  UNL1       -0.2279
      6 C          11.2591   81.5960   24.4870 C.ar    1  UNL1        0.1149
      7 N          13.9824   84.0234   23.9022 N.pl3   1  UNL1       -0.2932
      8 C          14.9663   84.0422   22.8089 C.3     1  UNL1        0.0923
      9 C          16.0764   85.0519   23.1167 C.3     1  UNL1        0.0252
     10 C          15.5333   86.4826   23.3817 C.3     1  UNL1        0.0472
     11 C          14.0260   86.4981   23.7329 C.3     1  UNL1        0.0252
     12 C          13.6200   85.2834   24.5741 C.3     1  UNL1        0.0923
     13 C          15.8192   87.4103   22.1893 C.3     1  UNL1        0.2054
     14 O          14.6791   87.4675   21.3344 O.3     1  UNL1       -0.4750
     15 C          14.3936   86.5434   20.3180 C.ar    1  UNL1        0.1440
     16 C          15.3542   85.6263   19.8457 C.ar    1  UNL1        0.0438
     17 C          15.0341   84.7146   18.8225 C.ar    1  UNL1        0.0785
     18 C          13.7337   84.7178   18.2903 C.ar    1  UNL1        0.0071
     19 C          12.7802   85.6248   18.7553 C.ar    1  UNL1        0.0090
     20 C          13.1066   86.5364   19.7618 C.ar    1  UNL1        0.0640
     21 I          11.6298   87.8904   20.4396 I       1  UNL1       -0.0394
     22 C          16.0360   83.7434   18.3190 C.2     1  UNL1        0.3381
     23 O          16.7298   84.0294   17.3070 O.2     1  UNL1       -0.2451
     24 O          16.2492   82.5162   18.9462 O.3     1  UNL1       -0.4771
     25 H          15.8067   82.2668   19.8212 H       1  UNL1        0.2954
     26 C          11.6559   78.2581   26.1328 C.2     1  UNL1        0.2839
     27 O          12.8910   78.1073   26.3343 O.2     1  UNL1       -0.2665
     28 N          11.1969   79.2480   25.2001 N.am    1  UNL1       -0.2766
     29 H          10.3265   79.0418   24.6607 H       1  UNL1        0.1553
     30 C           8.4539   78.0797   25.7146 C.3     1  UNL1        0.0345
     31 C           9.3262   77.2640   26.6206 C.ar    1  UNL1        0.0202
     32 C          10.7119   77.3485   26.8055 C.ar    1  UNL1        0.1946
     33 O          11.0999   76.4743   27.7175 O.2     1  UNL1       -0.4492
     34 C          10.0417   75.8121   28.1169 C.ar    1  UNL1        0.1452
     35 C           9.9886   74.7936   29.0621 C.ar    1  UNL1        0.0375
     36 C           8.7376   74.2153   29.3396 C.ar    1  UNL1        0.0031
     37 C           7.5646   74.6606   28.6717 C.ar    1  UNL1        0.0002
     38 C           7.6632   75.7010   27.7167 C.ar    1  UNL1        0.0028
     39 C           8.9205   76.2517   27.4673 C.ar    1  UNL1        0.0337
     40 C           6.2487   74.0414   28.9719 C.ar    1  UNL1        0.0000
     41 C           5.7346   73.0196   28.1510 C.ar    1  UNL1        0.0000
     42 C           4.4952   72.4384   28.4359 C.ar    1  UNL1        0.0000
     43 C           3.7558   72.8695   29.5394 C.ar    1  UNL1        0.0000
     44 C           4.2545   73.8829   30.3609 C.ar    1  UNL1        0.0000
     45 C           5.4938   74.4670   30.0814 C.ar    1  UNL1        0.0000
@<TRIPOS>BOND
     1    30    31    1
     2    31    32   ar
     3    32    26    1
     4    26    27    2
     5    26    28   am
     6    28     1    1
     7     1     2   ar
     8     2     3   ar
     9     3     4   ar
    10     4     7    1
    11     7     8    1
    12     8     9    1
    13     9    10    1
    14    10    13    1
    15    13    14    1
    16    14    15    1
    17    15    16   ar
    18    16    17   ar
    19    17    22    1
    20    22    23    2
    21    22    24    1
    22    17    18   ar
    23    18    19   ar
    24    19    20   ar
    25    20    21    1
    26    10    11    1
    27    11    12    1
    28     4     5   ar
    29     5     6   ar
    30    32    33   ar
    31    33    34   ar
    32    34    35   ar
    33    35    36   ar
    34    36    37   ar
    35    37    40    1
    36    40    41   ar
    37    41    42   ar
    38    42    43   ar
    39    43    44   ar
    40    44    45   ar
    41    37    38   ar
    42    38    39   ar
    43    39    31   ar
    44     6     1   ar
    45    39    34   ar
    46    12     7    1
    47    45    40   ar
    48    20    15   ar
    49    28    29    1
    50    24    25    1
@<TRIPOS>MOLECULE
*****
 45 50 0 0 0
SMALL
GASTEIGER

@<TRIPOS>ATOM
      1 C          11.7642   80.4252   25.0182 C.ar    1  UNL1        0.0702
      2 C          13.1650   80.4400   25.1030 C.ar    1  UNL1        0.0191
      3 C          13.8723   81.6107   24.8254 C.ar    1  UNL1        0.0356
      4 C          13.1741   82.7794   24.4750 C.ar    1  UNL1        0.1318
      5 N          11.8131   82.7411   24.4149 N.ar    1  UNL1       -0.2279
      6 C          11.1039   81.6128   24.6807 C.ar    1  UNL1        0.1149
      7 N          13.8695   84.0108   24.1795 N.pl3   1  UNL1       -0.2932
      8 C          14.1756   84.9540   25.2660 C.3     1  UNL1        0.0923
      9 C          14.1225   86.3934   24.7447 C.3     1  UNL1        0.0252
     10 C          15.0692   86.6322   23.5368 C.3     1  UNL1        0.0472
     11 C          15.4964   85.3187   22.8387 C.3     1  UNL1        0.0252
     12 C          14.3657   84.2846   22.8197 C.3     1  UNL1        0.0923
     13 C          16.3040   87.4464   23.9571 C.3     1  UNL1        0.2054
     14 O          15.8951   88.6425   24.6174 O.3     1  UNL1       -0.4750
     15 C          15.7170   88.7709   26.0032 C.ar    1  UNL1        0.1440
     16 C          14.4746   88.5343   26.6256 C.ar    1  UNL1        0.0438
     17 C          14.3310   88.6751   28.0184 C.ar    1  UNL1        0.0785
     18 C          15.4517   89.0366   28.7850 C.ar    1  UNL1        0.0071
     19 C          16.6833   89.2721   28.1721 C.ar    1  UNL1        0.0090
     20 C          16.8175   89.1438   26.7878 C.ar    1  UNL1        0.0640
     21 I          18.7032   89.5060   25.9008 I       1  UNL1       -0.0394
     22 C          13.0292   88.4266   28.6847 C.2     1  UNL1        0.3381
     23 O          11.9612   88.5160   28.0223 O.2     1  UNL1       -0.2451
     24 O          12.9485   88.0770   30.0323 O.3     1  UNL1       -0.4771
     25 H          13.7665   87.8833   30.5953 H       1  UNL1        0.2954
     26 C          11.4708   78.1836   26.1641 C.2     1  UNL1        0.2839
     27 O          12.7085   77.9836   26.2932 O.2     1  UNL1       -0.2665
     28 N          10.9998   79.2453   25.3206 N.am    1  UNL1       -0.2766
     29 H          10.0982   79.1005   24.8136 H       1  UNL1        0.1553
     30 C           8.3148   77.8181   25.5593 C.3     1  UNL1        0.0345
     31 C           9.1659   77.0947   26.5590 C.ar    1  UNL1        0.0202
     32 C          10.5311   77.2603   26.8243 C.ar    1  UNL1        0.1946
     33 O          10.9020   76.4536   27.8030 O.2     1  UNL1       -0.4492
     34 C           9.8540   75.7576   28.1707 C.ar    1  UNL1        0.1452
     35 C           9.7902   74.7857   29.1630 C.ar    1  UNL1        0.0375
     36 C           8.5538   74.1573   29.3929 C.ar    1  UNL1        0.0031
     37 C           7.4057   74.5074   28.6314 C.ar    1  UNL1        0.0002
     38 C           7.5144   75.5031   27.6310 C.ar    1  UNL1        0.0028
     39 C           8.7567   76.1056   27.4310 C.ar    1  UNL1        0.0337
     40 C           6.1051   73.8360   28.8821 C.ar    1  UNL1        0.0000
     41 C           5.2600   74.2770   29.9182 C.ar    1  UNL1        0.0000
     42 C           4.0359   73.6429   30.1521 C.ar    1  UNL1        0.0000
     43 C           3.6424   72.5637   29.3578 C.ar    1  UNL1        0.0000
     44 C           4.4722   72.1163   28.3274 C.ar    1  UNL1        0.0000
     45 C           5.6969   72.7472   28.0883 C.ar    1  UNL1        0.0000
@<TRIPOS>BOND
     1    30    31    1
     2    31    32   ar
     3    32    26    1
     4    26    27    2
     5    26    28   am
     6    28     1    1
     7     1     2   ar
     8     2     3   ar
     9     3     4   ar
    10     4     7    1
    11     7     8    1
    12     8     9    1
    13     9    10    1
    14    10    13    1
    15    13    14    1
    16    14    15    1
    17    15    16   ar
    18    16    17   ar
    19    17    22    1
    20    22    23    2
    21    22    24    1
    22    17    18   ar
    23    18    19   ar
    24    19    20   ar
    25    20    21    1
    26    10    11    1
    27    11    12    1
    28     4     5   ar
    29     5     6   ar
    30    32    33   ar
    31    33    34   ar
    32    34    35   ar
    33    35    36   ar
    34    36    37   ar
    35    37    40    1
    36    40    41   ar
    37    41    42   ar
    38    42    43   ar
    39    43    44   ar
    40    44    45   ar
    41    37    38   ar
    42    38    39   ar
    43    39    31   ar
    44     6     1   ar
    45    39    34   ar
    46    12     7    1
    47    45    40   ar
    48    20    15   ar
    49    28    29    1
    50    24    25    1
@<TRIPOS>MOLECULE
*****
 45 50 0 0 0
SMALL
GASTEIGER

@<TRIPOS>ATOM
      1 C          10.1703   80.7612   24.6761 C.ar    1  UNL1        0.0702
      2 C           9.8141   79.9514   23.5866 C.ar    1  UNL1        0.0191
      3 C           9.0727   78.7867   23.7910 C.ar    1  UNL1        0.0356
      4 C           8.6712   78.4364   25.0920 C.ar    1  UNL1        0.1318
      5 N           9.0178   79.2486   26.1299 N.ar    1  UNL1       -0.2279
      6 C           9.7392   80.3868   25.9545 C.ar    1  UNL1        0.1149
      7 N           7.9037   77.2388   25.3452 N.pl3   1  UNL1       -0.2932
      8 C           8.2758   76.3571   26.4623 C.3     1  UNL1        0.0923
      9 C           7.9719   74.8986   26.1060 C.3     1  UNL1        0.0252
     10 C           6.4878   74.6721   25.7078 C.3     1  UNL1        0.0472
     11 C           5.7650   75.9820   25.3114 C.3     1  UNL1        0.0252
     12 C           6.6916   76.9447   24.5613 C.3     1  UNL1        0.0923
     13 C           5.7209   73.9500   26.8278 C.3     1  UNL1        0.2054
     14 O           6.4979   73.9458   28.0236 O.3     1  UNL1       -0.4750
     15 C           6.2627   74.7708   29.1340 C.ar    1  UNL1        0.1440
     16 C           5.0319   75.4281   29.3335 C.ar    1  UNL1        0.0438
     17 C           4.8313   76.2507   30.4576 C.ar    1  UNL1        0.0785
     18 C           5.8714   76.3922   31.3917 C.ar    1  UNL1        0.0071
     19 C           7.0916   75.7431   31.1971 C.ar    1  UNL1        0.0090
     20 C           7.2902   74.9383   30.0730 C.ar    1  UNL1        0.0640
     21 I           9.1535   73.9700   29.8196 I       1  UNL1       -0.0394
     22 C           3.5396   76.9456   30.6793 C.2     1  UNL1        0.3381
     23 O           2.4594   76.3612   30.3983 O.2     1  UNL1       -0.2451
     24 O           3.4800   78.2338   31.2101 O.3     1  UNL1       -0.4771
     25 H           4.2974   78.7191   31.5568 H       1  UNL1        0.2954
     26 C          12.2011   82.2211   25.0865 C.2     1  UNL1        0.2839
     27 O          12.5382   81.6159   26.1395 O.2     1  UNL1       -0.2665
     28 N          10.9121   81.9808   24.5023 N.am    1  UNL1       -0.2766
     29 H          10.4423   82.7767   24.0157 H       1  UNL1        0.1553
     30 C          14.1103   84.2680   26.7067 C.3     1  UNL1        0.0345
     31 C          13.9499   84.1124   25.2245 C.ar    1  UNL1        0.0202
     32 C          13.1165   83.2302   24.5252 C.ar    1  UNL1        0.1946
     33 O          13.2424   83.4255   23.2243 O.2     1  UNL1       -0.4492
     34 C          14.1303   84.3724   23.0430 C.ar    1  UNL1        0.1452
     35 C          14.5762   84.8928   21.8331 C.ar    1  UNL1        0.0375
     36 C          15.5436   85.9123   21.8697 C.ar    1  UNL1        0.0031
     37 C          16.0486   86.3936   23.1081 C.ar    1  UNL1        0.0002
     38 C          15.5667   85.8365   24.3170 C.ar    1  UNL1        0.0028
     39 C          14.6066   84.8271   24.2424 C.ar    1  UNL1        0.0337
     40 C          17.0713   87.4700   23.1346 C.ar    1  UNL1        0.0000
     41 C          17.3265   88.2432   21.9859 C.ar    1  UNL1        0.0000
     42 C          18.2902   89.2559   22.0135 C.ar    1  UNL1        0.0000
     43 C          19.0093   89.5076   23.1840 C.ar    1  UNL1        0.0000
     44 C          18.7660   88.7470   24.3298 C.ar    1  UNL1        0.0000
     45 C          17.8028   87.7336   24.3082 C.ar    1  UNL1        0.0000
@<TRIPOS>BOND
     1    30    31    1
     2    31    32   ar
     3    32    26    1
     4    26    27    2
     5    26    28   am
     6    28     1    1
     7     1     2   ar
     8     2     3   ar
     9     3     4   ar
    10     4     7    1
    11     7     8    1
    12     8     9    1
    13     9    10    1
    14    10    13    1
    15    13    14    1
    16    14    15    1
    17    15    16   ar
    18    16    17   ar
    19    17    22    1
    20    22    23    2
    21    22    24    1
    22    17    18   ar
    23    18    19   ar
    24    19    20   ar
    25    20    21    1
    26    10    11    1
    27    11    12    1
    28     4     5   ar
    29     5     6   ar
    30    32    33   ar
    31    33    34   ar
    32    34    35   ar
    33    35    36   ar
    34    36    37   ar
    35    37    40    1
    36    40    41   ar
    37    41    42   ar
    38    42    43   ar
    39    43    44   ar
    40    44    45   ar
    41    37    38   ar
    42    38    39   ar
    43    39    31   ar
    44     6     1   ar
    45    39    34   ar
    46    12     7    1
    47    45    40   ar
    48    20    15   ar
    49    28    29    1
    50    24    25    1
@<TRIPOS>MOLECULE
*****
 45 50 0 0 0
SMALL
GASTEIGER

@<TRIPOS>ATOM
      1 C          10.6329   81.1689   24.7129 C.ar    1  UNL1        0.0702
      2 C          10.2261   80.4793   25.8655 C.ar    1  UNL1        0.0191
      3 C           9.5128   79.2849   25.7534 C.ar    1  UNL1        0.0356
      4 C           9.2168   78.7677   24.4802 C.ar    1  UNL1        0.1318
      5 N           9.6369   79.4498   23.3777 N.ar    1  UNL1       -0.2279
      6 C          10.3322   80.6143   23.4629 C.ar    1  UNL1        0.1149
      7 N           8.4800   77.5350   24.3219 N.pl3   1  UNL1       -0.2932
      8 C           7.9306   76.8569   25.5059 C.3     1  UNL1        0.0923
      9 C           7.9495   75.3391   25.3000 C.3     1  UNL1        0.0252
     10 C           7.1901   74.8951   24.0200 C.3     1  UNL1        0.0472
     11 C           6.9862   76.0505   23.0105 C.3     1  UNL1        0.0252
     12 C           8.1853   77.0042   22.9796 C.3     1  UNL1        0.0923
     13 C           5.8428   74.2455   24.3761 C.3     1  UNL1        0.2054
     14 O           5.1707   75.0295   25.3596 O.3     1  UNL1       -0.4750
     15 C           4.2403   76.0413   25.0779 C.ar    1  UNL1        0.1440
     16 C           3.7329   76.2545   23.7802 C.ar    1  UNL1        0.0438
     17 C           2.8025   77.2809   23.5329 C.ar    1  UNL1        0.0785
     18 C           2.3697   78.0800   24.6045 C.ar    1  UNL1        0.0071
     19 C           2.8703   77.8720   25.8907 C.ar    1  UNL1        0.0090
     20 C           3.8035   76.8605   26.1286 C.ar    1  UNL1        0.0640
     21 I           4.5328   76.5775   28.0937 I       1  UNL1       -0.0394
     22 C           2.2599   77.5131   22.1720 C.2     1  UNL1        0.3381
     23 O           2.8169   78.3490   21.4115 O.2     1  UNL1       -0.2451
     24 O           1.1500   76.8165   21.6948 O.3     1  UNL1       -0.4771
     25 H           0.7202   76.0580   22.2082 H       1  UNL1        0.2954
     26 C          12.8246   82.4375   24.8166 C.2     1  UNL1        0.2839
     27 O          13.4796   81.4538   25.2546 O.2     1  UNL1       -0.2665
     28 N          11.3902   82.3889   24.7882 N.am    1  UNL1       -0.2766
     29 H          10.8699   83.2818   24.9404 H       1  UNL1        0.1553
     30 C          15.5763   82.6215   23.1272 C.3     1  UNL1        0.0345
     31 C          14.7418   83.7370   23.6809 C.ar    1  UNL1        0.0202
     32 C          13.5543   83.6543   24.4189 C.ar    1  UNL1        0.1946
     33 O          13.1430   84.8659   24.7497 O.2     1  UNL1       -0.4492
     34 C          13.9893   85.7304   24.2456 C.ar    1  UNL1        0.1452
     35 C          13.9405   87.1166   24.3430 C.ar    1  UNL1        0.0375
     36 C          14.9593   87.8583   23.7196 C.ar    1  UNL1        0.0031
     37 C          16.0057   87.2071   23.0116 C.ar    1  UNL1        0.0002
     38 C          16.0179   85.7935   22.9376 C.ar    1  UNL1        0.0028
     39 C          14.9913   85.0903   23.5685 C.ar    1  UNL1        0.0337
     40 C          17.0759   88.0009   22.3559 C.ar    1  UNL1        0.0000
     41 C          16.9466   88.4050   21.0133 C.ar    1  UNL1        0.0000
     42 C          17.9559   89.1522   20.3983 C.ar    1  UNL1        0.0000
     43 C          19.1032   89.5029   21.1132 C.ar    1  UNL1        0.0000
     44 C          19.2436   89.1074   22.4453 C.ar    1  UNL1        0.0000
     45 C          18.2371   88.3609   23.0658 C.ar    1  UNL1        0.0000
@<TRIPOS>BOND
     1    30    31    1
     2    31    32   ar
     3    32    26    1
     4    26    27    2
     5    26    28   am
     6    28     1    1
     7     1     2   ar
     8     2     3   ar
     9     3     4   ar
    10     4     7    1
    11     7     8    1
    12     8     9    1
    13     9    10    1
    14    10    13    1
    15    13    14    1
    16    14    15    1
    17    15    16   ar
    18    16    17   ar
    19    17    22    1
    20    22    23    2
    21    22    24    1
    22    17    18   ar
    23    18    19   ar
    24    19    20   ar
    25    20    21    1
    26    10    11    1
    27    11    12    1
    28     4     5   ar
    29     5     6   ar
    30    32    33   ar
    31    33    34   ar
    32    34    35   ar
    33    35    36   ar
    34    36    37   ar
    35    37    40    1
    36    40    41   ar
    37    41    42   ar
    38    42    43   ar
    39    43    44   ar
    40    44    45   ar
    41    37    38   ar
    42    38    39   ar
    43    39    31   ar
    44     6     1   ar
    45    39    34   ar
    46    12     7    1
    47    45    40   ar
    48    20    15   ar
    49    28    29    1
    50    24    25    1
@<TRIPOS>MOLECULE
*****
 45 50 0 0 0
SMALL
GASTEIGER

@<TRIPOS>ATOM
      1 C          10.6253   81.2998   24.8152 C.ar    1  UNL1        0.0702
      2 C          10.1524   80.7712   23.6042 C.ar    1  UNL1        0.0191
      3 C           9.4061   79.5918   23.5974 C.ar    1  UNL1        0.0356
      4 C           9.1173   78.9437   24.8111 C.ar    1  UNL1        0.1318
      5 N           9.5760   79.4869   25.9738 N.ar    1  UNL1       -0.2279
      6 C          10.3044   80.6337   26.0042 C.ar    1  UNL1        0.1149
      7 N           8.3488   77.7208   24.8463 N.pl3   1  UNL1       -0.2932
      8 C           9.0155   76.4334   24.5975 C.3     1  UNL1        0.0923
      9 C           8.0557   75.4710   23.8909 C.3     1  UNL1        0.0252
     10 C           6.7335   75.2538   24.6763 C.3     1  UNL1        0.0472
     11 C           6.4659   76.3632   25.7218 C.3     1  UNL1        0.0252
     12 C           6.9265   77.7393   25.2294 C.3     1  UNL1        0.0923
     13 C           6.7091   73.8679   25.3416 C.3     1  UNL1        0.2054
     14 O           7.4737   73.8936   26.5452 O.3     1  UNL1       -0.4750
     15 C           6.9367   74.0554   27.8313 C.ar    1  UNL1        0.1440
     16 C           5.6578   73.5738   28.1769 C.ar    1  UNL1        0.0438
     17 C           5.1491   73.7559   29.4763 C.ar    1  UNL1        0.0785
     18 C           5.9442   74.4091   30.4331 C.ar    1  UNL1        0.0071
     19 C           7.2108   74.8876   30.0943 C.ar    1  UNL1        0.0090
     20 C           7.7059   74.7159   28.7997 C.ar    1  UNL1        0.0640
     21 I           9.6321   75.4532   28.3305 I       1  UNL1       -0.0394
     22 C           3.8057   73.2515   29.8521 C.2     1  UNL1        0.3381
     23 O           2.8504   74.0611   29.9906 O.2     1  UNL1       -0.2451
     24 O           3.5585   71.8924   30.0437 O.3     1  UNL1       -0.4771
     25 H           4.2485   71.1794   29.8458 H       1  UNL1        0.2954
     26 C          12.8072   82.5813   24.9601 C.2     1  UNL1        0.2839
     27 O          13.4417   81.6241   25.4796 O.2     1  UNL1       -0.2665
     28 N          11.3760   82.5253   24.8645 N.am    1  UNL1       -0.2766
     29 H          10.8474   83.4226   24.9449 H       1  UNL1        0.1553
     30 C          15.3692   82.7126   22.9907 C.3     1  UNL1        0.0345
     31 C          14.6583   83.8394   23.6776 C.ar    1  UNL1        0.0202
     32 C          13.5534   83.7791   24.5363 C.ar    1  UNL1        0.1946
     33 O          13.2440   84.9921   24.9599 O.2     1  UNL1       -0.4492
     34 C          14.0761   85.8379   24.4031 C.ar    1  UNL1        0.1452
     35 C          14.1110   87.2188   24.5626 C.ar    1  UNL1        0.0375
     36 C          15.0952   87.9392   23.8635 C.ar    1  UNL1        0.0031
     37 C          16.0246   87.2728   23.0196 C.ar    1  UNL1        0.0002
     38 C          15.9543   85.8652   22.8860 C.ar    1  UNL1        0.0028
     39 C          14.9653   85.1830   23.5950 C.ar    1  UNL1        0.0337
     40 C          17.0590   88.0443   22.2849 C.ar    1  UNL1        0.0000
     41 C          16.7866   88.5712   21.0079 C.ar    1  UNL1        0.0000
     42 C          17.7626   89.2971   20.3183 C.ar    1  UNL1        0.0000
     43 C          19.0186   89.5043   20.8925 C.ar    1  UNL1        0.0000
     44 C          19.3014   88.9862   22.1583 C.ar    1  UNL1        0.0000
     45 C          18.3290   88.2602   22.8530 C.ar    1  UNL1        0.0000
@<TRIPOS>BOND
     1    30    31    1
     2    31    32   ar
     3    32    26    1
     4    26    27    2
     5    26    28   am
     6    28     1    1
     7     1     2   ar
     8     2     3   ar
     9     3     4   ar
    10     4     7    1
    11     7     8    1
    12     8     9    1
    13     9    10    1
    14    10    13    1
    15    13    14    1
    16    14    15    1
    17    15    16   ar
    18    16    17   ar
    19    17    22    1
    20    22    23    2
    21    22    24    1
    22    17    18   ar
    23    18    19   ar
    24    19    20   ar
    25    20    21    1
    26    10    11    1
    27    11    12    1
    28     4     5   ar
    29     5     6   ar
    30    32    33   ar
    31    33    34   ar
    32    34    35   ar
    33    35    36   ar
    34    36    37   ar
    35    37    40    1
    36    40    41   ar
    37    41    42   ar
    38    42    43   ar
    39    43    44   ar
    40    44    45   ar
    41    37    38   ar
    42    38    39   ar
    43    39    31   ar
    44     6     1   ar
    45    39    34   ar
    46    12     7    1
    47    45    40   ar
    48    20    15   ar
    49    28    29    1
    50    24    25    1
