@<TRIPOS>MOLECULE
*****
 50 55 0 0 0
SMALL
GASTEIGER

@<TRIPOS>ATOM
      1 C          -8.6961  -14.2390   28.1998 C.2     1  UNL1        0.2483
      2 O          -9.4658  -14.9776   28.8733 O.2     1  UNL1       -0.2701
      3 N          -8.5269  -12.8584   28.5668 N.am    1  UNL1       -0.2945
      4 H          -7.9473  -12.2322   27.9649 H       1  UNL1        0.1501
      5 C          -7.7457  -15.6730   24.7938 C.ar    1  UNL1        0.0756
      6 C          -6.3606  -15.8822   24.9881 C.ar    1  UNL1        0.0529
      7 C          -5.7831  -15.5981   26.2305 C.ar    1  UNL1        0.0149
      8 C          -6.5549  -15.0851   27.2700 C.ar    1  UNL1        0.0080
      9 C          -7.9217  -14.8333   27.0870 C.ar    1  UNL1        0.0809
     10 C          -8.5197  -15.1523   25.8522 C.ar    1  UNL1        0.1483
     11 F          -9.8640  -15.0401   25.7047 F       1  UNL1       -0.2039
     12 N          -5.5166  -16.3327   23.9159 N.pl3   1  UNL1       -0.3039
     13 C          -4.8771  -15.3557   23.0290 C.3     1  UNL1        0.1122
     14 C          -3.4237  -15.7599   22.7736 C.3     1  UNL1        0.1122
     15 N          -3.3184  -17.1703   22.3611 N.pl3   1  UNL1       -0.3040
     16 C          -4.4884  -18.0578   22.4607 C.3     1  UNL1        0.1122
     17 C          -5.2810  -17.7707   23.7409 C.3     1  UNL1        0.1122
     18 C          -2.1060  -17.6356   21.7280 C.ar    1  UNL1        0.0496
     19 C          -1.3356  -16.7693   20.9289 C.ar    1  UNL1        0.0260
     20 C          -0.1593  -17.2214   20.3214 C.ar    1  UNL1        0.0597
     21 CL          0.7920  -16.1294   19.3314 Cl      1  UNL1       -0.0822
     22 C           0.2614  -18.5411   20.5064 C.ar    1  UNL1        0.0229
     23 C          -0.4921  -19.4104   21.2999 C.ar    1  UNL1        0.0597
     24 CL          0.0368  -21.0672   21.5295 Cl      1  UNL1       -0.0822
     25 C          -1.6686  -18.9611   21.9092 C.ar    1  UNL1        0.0260
     26 C          -9.1966  -17.2967   23.3709 C.3     1  UNL1        0.0774
     27 C          -8.3921  -16.0416   23.5106 C.2     1  UNL1        0.1769
     28 O          -8.2425  -15.3014   22.5013 O.2     1  UNL1       -0.2912
     29 C          -9.0507  -12.3025   29.8208 C.3     1  UNL1        0.1535
     30 C          -9.1942  -10.7953   29.6909 C.2     1  UNL1        0.2443
     31 O         -10.3374  -10.2666   29.7555 O.2     1  UNL1       -0.2730
     32 N          -8.0558   -9.9413   29.4827 N.am    1  UNL1       -0.2825
     33 H          -8.2145   -9.0306   28.9953 H       1  UNL1        0.1549
     34 C          -6.7066  -10.2985   29.8160 C.ar    1  UNL1        0.0535
     35 C          -6.3951  -10.8658   31.0602 C.ar    1  UNL1        0.0353
     36 C          -5.0705  -11.2033   31.3483 C.ar    1  UNL1        0.1002
     37 N          -4.0927  -10.9722   30.4321 N.ar    1  UNL1       -0.2422
     38 C          -4.3661  -10.4090   29.2252 C.ar    1  UNL1        0.1002
     39 C          -5.6769  -10.0519   28.8998 C.ar    1  UNL1        0.0353
     40 C         -10.3918  -12.9804   30.1673 C.3     1  UNL1        0.0569
     41 C         -10.6286  -12.9978   31.6503 C.ar    1  UNL1       -0.0017
     42 C          -9.9258  -12.2695   32.6057 C.ar    1  UNL1        0.0681
     43 N         -10.3174  -12.6223   33.8512 N.ar    1  UNL1       -0.3523
     44 C         -11.2515  -13.5757   33.6910 C.ar    1  UNL1        0.0563
     45 C         -11.9228  -14.2769   34.6918 C.ar    1  UNL1        0.0170
     46 C         -12.8408  -15.2678   34.2981 C.ar    1  UNL1        0.0015
     47 C         -13.0633  -15.5337   32.9290 C.ar    1  UNL1        0.0001
     48 C         -12.3709  -14.8105   31.9410 C.ar    1  UNL1        0.0012
     49 C         -11.4680  -13.8337   32.3615 C.ar    1  UNL1        0.0131
     50 H          -9.9471  -12.2469   34.7525 H       1  UNL1        0.1660
@<TRIPOS>BOND
     1    26    27    1
     2    27    28    2
     3    27     5    1
     4     5     6   ar
     5     6    12    1
     6    12    13    1
     7    13    14    1
     8    14    15    1
     9    15    18    1
    10    18    19   ar
    11    19    20   ar
    12    20    21    1
    13    20    22   ar
    14    22    23   ar
    15    23    24    1
    16    23    25   ar
    17    15    16    1
    18    16    17    1
    19     6     7   ar
    20     7     8   ar
    21     8     9   ar
    22     9     1    1
    23     1     2    2
    24     1     3   am
    25     3    29    1
    26    29    40    1
    27    40    41    1
    28    41    42   ar
    29    42    43   ar
    30    43    44   ar
    31    44    45   ar
    32    45    46   ar
    33    46    47   ar
    34    47    48   ar
    35    48    49   ar
    36    29    30    1
    37    30    31    2
    38    30    32   am
    39    32    34    1
    40    34    35   ar
    41    35    36   ar
    42    36    37   ar
    43    37    38   ar
    44    38    39   ar
    45     9    10   ar
    46    10    11    1
    47    10     5   ar
    48    17    12    1
    49    49    41   ar
    50    39    34   ar
    51    25    18   ar
    52    49    44   ar
    53     3     4    1
    54    43    50    1
    55    32    33    1
@<TRIPOS>MOLECULE
*****
 50 55 0 0 0
SMALL
GASTEIGER

@<TRIPOS>ATOM
      1 C          -7.0157  -12.0704   29.4383 C.2     1  UNL1        0.2483
      2 O          -6.0910  -11.5853   30.1461 O.2     1  UNL1       -0.2701
      3 N          -8.3685  -11.6158   29.6187 N.am    1  UNL1       -0.2945
      4 H          -9.1411  -12.0709   29.0836 H       1  UNL1        0.1501
      5 C          -7.2345  -14.9442   26.9375 C.ar    1  UNL1        0.0756
      6 C          -5.9810  -14.8135   26.2958 C.ar    1  UNL1        0.0529
      7 C          -5.0819  -13.8299   26.7225 C.ar    1  UNL1        0.0149
      8 C          -5.4210  -12.9601   27.7559 C.ar    1  UNL1        0.0080
      9 C          -6.6735  -13.0468   28.3795 C.ar    1  UNL1        0.0809
     10 C          -7.5699  -14.0583   27.9830 C.ar    1  UNL1        0.1483
     11 F          -8.7282  -14.2389   28.6663 F       1  UNL1       -0.2039
     12 N          -5.6281  -15.6382   25.1733 N.pl3   1  UNL1       -0.3039
     13 C          -6.0134  -15.2322   23.8180 C.3     1  UNL1        0.1122
     14 C          -4.8466  -15.4629   22.8555 C.3     1  UNL1        0.1122
     15 N          -4.2957  -16.8228   22.9887 N.pl3   1  UNL1       -0.3040
     16 C          -4.7149  -17.6828   24.1073 C.3     1  UNL1        0.1122
     17 C          -4.8566  -16.8666   25.3970 C.3     1  UNL1        0.1122
     18 C          -3.4559  -17.3537   21.9398 C.ar    1  UNL1        0.0496
     19 C          -2.2311  -16.7373   21.6199 C.ar    1  UNL1        0.0260
     20 C          -1.4176  -17.2569   20.6072 C.ar    1  UNL1        0.0597
     21 CL          0.1073  -16.4800   20.2222 Cl      1  UNL1       -0.0822
     22 C          -1.8166  -18.3973   19.9051 C.ar    1  UNL1        0.0229
     23 C          -3.0282  -19.0210   20.2150 C.ar    1  UNL1        0.0597
     24 CL         -3.5280  -20.4516   19.3311 Cl      1  UNL1       -0.0822
     25 C          -3.8436  -18.5041   21.2275 C.ar    1  UNL1        0.0260
     26 C          -9.0032  -15.9437   25.3129 C.3     1  UNL1        0.0774
     27 C          -8.1695  -16.0300   26.5537 C.2     1  UNL1        0.1769
     28 O          -8.2923  -17.0398   27.2982 O.2     1  UNL1       -0.2912
     29 C          -8.7097  -10.4563   30.4524 C.3     1  UNL1        0.1535
     30 C          -8.7872   -9.2097   29.5868 C.2     1  UNL1        0.2443
     31 O          -9.6773   -9.1181   28.6981 O.2     1  UNL1       -0.2730
     32 N          -7.8599   -8.1212   29.7418 N.am    1  UNL1       -0.2825
     33 H          -7.6751   -7.5182   28.9085 H       1  UNL1        0.1549
     34 C          -7.1045   -7.8676   30.9351 C.ar    1  UNL1        0.0535
     35 C          -5.7824   -8.3177   31.0634 C.ar    1  UNL1        0.0353
     36 C          -5.0772   -8.0497   32.2391 C.ar    1  UNL1        0.1002
     37 N          -5.6743   -7.3675   33.2525 N.ar    1  UNL1       -0.2422
     38 C          -6.9596   -6.9342   33.1593 C.ar    1  UNL1        0.1002
     39 C          -7.7015   -7.1862   32.0027 C.ar    1  UNL1        0.0353
     40 C         -10.0345  -10.7244   31.1948 C.3     1  UNL1        0.0569
     41 C          -9.7886  -11.2672   32.5735 C.ar    1  UNL1       -0.0017
     42 C          -8.7548  -10.9017   33.4307 C.ar    1  UNL1        0.0681
     43 N          -8.7612  -11.6793   34.5373 N.ar    1  UNL1       -0.3523
     44 C          -9.7815  -12.5405   34.3804 C.ar    1  UNL1        0.0563
     45 C         -10.1616  -13.5658   35.2453 C.ar    1  UNL1        0.0170
     46 C         -11.2443  -14.3798   34.8647 C.ar    1  UNL1        0.0015
     47 C         -11.9136  -14.1544   33.6416 C.ar    1  UNL1        0.0001
     48 C         -11.5074  -13.1125   32.7885 C.ar    1  UNL1        0.0012
     49 C         -10.4318  -12.3215   33.1930 C.ar    1  UNL1        0.0131
     50 H          -8.0909  -11.6341   35.3367 H       1  UNL1        0.1660
@<TRIPOS>BOND
     1    26    27    1
     2    27    28    2
     3    27     5    1
     4     5     6   ar
     5     6    12    1
     6    12    13    1
     7    13    14    1
     8    14    15    1
     9    15    18    1
    10    18    19   ar
    11    19    20   ar
    12    20    21    1
    13    20    22   ar
    14    22    23   ar
    15    23    24    1
    16    23    25   ar
    17    15    16    1
    18    16    17    1
    19     6     7   ar
    20     7     8   ar
    21     8     9   ar
    22     9     1    1
    23     1     2    2
    24     1     3   am
    25     3    29    1
    26    29    40    1
    27    40    41    1
    28    41    42   ar
    29    42    43   ar
    30    43    44   ar
    31    44    45   ar
    32    45    46   ar
    33    46    47   ar
    34    47    48   ar
    35    48    49   ar
    36    29    30    1
    37    30    31    2
    38    30    32   am
    39    32    34    1
    40    34    35   ar
    41    35    36   ar
    42    36    37   ar
    43    37    38   ar
    44    38    39   ar
    45     9    10   ar
    46    10    11    1
    47    10     5   ar
    48    17    12    1
    49    49    41   ar
    50    39    34   ar
    51    25    18   ar
    52    49    44   ar
    53     3     4    1
    54    43    50    1
    55    32    33    1
@<TRIPOS>MOLECULE
*****
 50 55 0 0 0
SMALL
GASTEIGER

@<TRIPOS>ATOM
      1 C          -7.0016  -12.0307   29.4167 C.2     1  UNL1        0.2483
      2 O          -6.0751  -11.5208   30.1044 O.2     1  UNL1       -0.2701
      3 N          -8.3589  -11.5950   29.6096 N.am    1  UNL1       -0.2945
      4 H          -9.1315  -12.0701   29.0920 H       1  UNL1        0.1501
      5 C          -7.2171  -14.9299   26.9451 C.ar    1  UNL1        0.0756
      6 C          -5.9646  -14.8030   26.3007 C.ar    1  UNL1        0.0529
      7 C          -5.0671  -13.8132   26.7165 C.ar    1  UNL1        0.0149
      8 C          -5.4069  -12.9339   27.7414 C.ar    1  UNL1        0.0080
      9 C          -6.6585  -13.0169   28.3674 C.ar    1  UNL1        0.0809
     10 C          -7.5532  -14.0342   27.9820 C.ar    1  UNL1        0.1483
     11 F          -8.7104  -14.2105   28.6684 F       1  UNL1       -0.2039
     12 N          -5.6111  -15.6381   25.1861 N.pl3   1  UNL1       -0.3039
     13 C          -6.0128  -15.2547   23.8290 C.3     1  UNL1        0.1122
     14 C          -4.8514  -15.4841   22.8596 C.3     1  UNL1        0.1122
     15 N          -4.2830  -16.8354   23.0058 N.pl3   1  UNL1       -0.3040
     16 C          -4.6823  -17.6855   24.1391 C.3     1  UNL1        0.1122
     17 C          -4.8230  -16.8541   25.4192 C.3     1  UNL1        0.1122
     18 C          -3.4456  -17.3700   21.9569 C.ar    1  UNL1        0.0496
     19 C          -3.8385  -18.5155   21.2386 C.ar    1  UNL1        0.0260
     20 C          -3.0280  -19.0277   20.2198 C.ar    1  UNL1        0.0597
     21 CL         -3.5324  -20.4537   19.3312 Cl      1  UNL1       -0.0822
     22 C          -1.8187  -18.4016   19.9061 C.ar    1  UNL1        0.0229
     23 C          -1.4185  -17.2619   20.6089 C.ar    1  UNL1        0.0597
     24 CL          0.1008  -16.4784   20.2148 Cl      1  UNL1       -0.0822
     25 C          -2.2272  -16.7469   21.6279 C.ar    1  UNL1        0.0260
     26 C          -8.9791  -15.9533   25.3281 C.3     1  UNL1        0.0774
     27 C          -8.1501  -16.0215   26.5732 C.2     1  UNL1        0.1769
     28 O          -8.2755  -17.0205   27.3316 O.2     1  UNL1       -0.2912
     29 C          -8.7070  -10.4290   30.4312 C.3     1  UNL1        0.1535
     30 C          -8.8027   -9.1940   29.5510 C.2     1  UNL1        0.2443
     31 O          -9.6995   -9.1221   28.6672 O.2     1  UNL1       -0.2730
     32 N          -7.8856   -8.0944   29.6866 N.am    1  UNL1       -0.2825
     33 H          -7.7123   -7.4998   28.8449 H       1  UNL1        0.1549
     34 C          -7.1250   -7.8186   30.8718 C.ar    1  UNL1        0.0535
     35 C          -5.7673   -8.1599   30.9554 C.ar    1  UNL1        0.0353
     36 C          -5.0583   -7.8734   32.1245 C.ar    1  UNL1        0.1002
     37 N          -5.6853   -7.2786   33.1742 N.ar    1  UNL1       -0.2422
     38 C          -7.0042   -6.9521   33.1243 C.ar    1  UNL1        0.1002
     39 C          -7.7505   -7.2263   31.9757 C.ar    1  UNL1        0.0353
     40 C         -10.0244  -10.7017   31.1851 C.3     1  UNL1        0.0569
     41 C          -9.7647  -11.2436   32.5616 C.ar    1  UNL1       -0.0017
     42 C          -8.7210  -10.8793   33.4073 C.ar    1  UNL1        0.0681
     43 N          -8.7171  -11.6557   34.5146 N.ar    1  UNL1       -0.3523
     44 C          -9.7406  -12.5151   34.3696 C.ar    1  UNL1        0.0563
     45 C         -10.1133  -13.5389   35.2396 C.ar    1  UNL1        0.0170
     46 C         -11.2016  -14.3511   34.8715 C.ar    1  UNL1        0.0015
     47 C         -11.8836  -14.1257   33.6554 C.ar    1  UNL1        0.0001
     48 C         -11.4846  -13.0854   32.7970 C.ar    1  UNL1        0.0012
     49 C         -10.4033  -12.2960   33.1890 C.ar    1  UNL1        0.0131
     50 H          -8.0380  -11.6111   35.3067 H       1  UNL1        0.1660
@<TRIPOS>BOND
     1    26    27    1
     2    27    28    2
     3    27     5    1
     4     5     6   ar
     5     6    12    1
     6    12    13    1
     7    13    14    1
     8    14    15    1
     9    15    18    1
    10    18    19   ar
    11    19    20   ar
    12    20    21    1
    13    20    22   ar
    14    22    23   ar
    15    23    24    1
    16    23    25   ar
    17    15    16    1
    18    16    17    1
    19     6     7   ar
    20     7     8   ar
    21     8     9   ar
    22     9     1    1
    23     1     2    2
    24     1     3   am
    25     3    29    1
    26    29    40    1
    27    40    41    1
    28    41    42   ar
    29    42    43   ar
    30    43    44   ar
    31    44    45   ar
    32    45    46   ar
    33    46    47   ar
    34    47    48   ar
    35    48    49   ar
    36    29    30    1
    37    30    31    2
    38    30    32   am
    39    32    34    1
    40    34    35   ar
    41    35    36   ar
    42    36    37   ar
    43    37    38   ar
    44    38    39   ar
    45     9    10   ar
    46    10    11    1
    47    10     5   ar
    48    17    12    1
    49    49    41   ar
    50    39    34   ar
    51    25    18   ar
    52    49    44   ar
    53     3     4    1
    54    43    50    1
    55    32    33    1
@<TRIPOS>MOLECULE
*****
 50 55 0 0 0
SMALL
GASTEIGER

@<TRIPOS>ATOM
      1 C          -8.3083  -12.1832   29.9893 C.2     1  UNL1        0.2483
      2 O          -7.6767  -11.9198   31.0491 O.2     1  UNL1       -0.2701
      3 N          -9.6245  -11.6393   29.7868 N.am    1  UNL1       -0.2945
      4 H         -10.1735  -11.9180   28.9433 H       1  UNL1        0.1501
      5 C          -7.6510  -14.7942   27.2853 C.ar    1  UNL1        0.0756
      6 C          -6.3472  -14.4185   26.8864 C.ar    1  UNL1        0.0529
      7 C          -5.6999  -13.3617   27.5360 C.ar    1  UNL1        0.0149
      8 C          -6.3385  -12.6583   28.5542 C.ar    1  UNL1        0.0080
      9 C          -7.6454  -12.9886   28.9389 C.ar    1  UNL1        0.0809
     10 C          -8.2905  -14.0755   28.3173 C.ar    1  UNL1        0.1483
     11 F          -9.5004  -14.4906   28.7702 F       1  UNL1       -0.2039
     12 N          -5.6879  -15.0667   25.7865 N.pl3   1  UNL1       -0.3039
     13 C          -4.5405  -15.9448   26.0366 C.3     1  UNL1        0.1122
     14 C          -4.6575  -17.2081   25.1813 C.3     1  UNL1        0.1122
     15 N          -4.9244  -16.8831   23.7693 N.pl3   1  UNL1       -0.3040
     16 C          -5.2708  -15.5061   23.3815 C.3     1  UNL1        0.1122
     17 C          -6.1933  -14.8636   24.4236 C.3     1  UNL1        0.1122
     18 C          -4.7045  -17.8892   22.7561 C.ar    1  UNL1        0.0496
     19 C          -5.7822  -18.4048   22.0109 C.ar    1  UNL1        0.0260
     20 C          -5.5653  -19.3752   21.0267 C.ar    1  UNL1        0.0597
     21 CL         -6.9175  -20.0056   20.1039 Cl      1  UNL1       -0.0822
     22 C          -4.2716  -19.8395   20.7748 C.ar    1  UNL1        0.0229
     23 C          -3.1927  -19.3337   21.5048 C.ar    1  UNL1        0.0597
     24 CL         -1.5695  -19.9192   21.1882 Cl      1  UNL1       -0.0822
     25 C          -3.4062  -18.3628   22.4892 C.ar    1  UNL1        0.0260
     26 C          -9.0065  -15.8559   25.3355 C.3     1  UNL1        0.0774
     27 C          -8.3237  -15.9612   26.6639 C.2     1  UNL1        0.1769
     28 O          -8.3506  -17.0637   27.2742 O.2     1  UNL1       -0.2912
     29 C         -10.2022  -10.6154   30.6664 C.3     1  UNL1        0.1535
     30 C         -10.3682   -9.3155   29.8970 C.2     1  UNL1        0.2443
     31 O         -11.5242   -8.8958   29.6176 O.2     1  UNL1       -0.2730
     32 N          -9.2357   -8.5433   29.4613 N.am    1  UNL1       -0.2825
     33 H          -9.3575   -7.9340   28.6211 H       1  UNL1        0.1549
     34 C          -7.9283   -8.6262   30.0470 C.ar    1  UNL1        0.0535
     35 C          -7.7191   -8.3077   31.3967 C.ar    1  UNL1        0.0353
     36 C          -6.4326   -8.4027   31.9328 C.ar    1  UNL1        0.1002
     37 N          -5.3929   -8.7904   31.1471 N.ar    1  UNL1       -0.2422
     38 C          -5.5664   -9.0894   29.8322 C.ar    1  UNL1        0.1002
     39 C          -6.8359   -9.0021   29.2558 C.ar    1  UNL1        0.0353
     40 C         -11.5422  -11.1205   31.2385 C.3     1  UNL1        0.0569
     41 C         -11.3292  -11.9851   32.4480 C.ar    1  UNL1       -0.0017
     42 C         -10.2730  -11.8947   33.3500 C.ar    1  UNL1        0.0681
     43 N         -10.3272  -12.9079   34.2442 N.ar    1  UNL1       -0.3523
     44 C         -11.4003  -13.6441   33.9071 C.ar    1  UNL1        0.0563
     45 C         -11.8435  -14.8181   34.5146 C.ar    1  UNL1        0.0170
     46 C         -12.9763  -15.4523   33.9721 C.ar    1  UNL1        0.0015
     47 C         -13.6317  -14.9061   32.8466 C.ar    1  UNL1        0.0001
     48 C         -13.1614  -13.7204   32.2540 C.ar    1  UNL1        0.0012
     49 C         -12.0372  -13.1136   32.8144 C.ar    1  UNL1        0.0131
     50 H          -9.6542  -13.0924   35.0210 H       1  UNL1        0.1660
@<TRIPOS>BOND
     1    26    27    1
     2    27    28    2
     3    27     5    1
     4     5     6   ar
     5     6    12    1
     6    12    13    1
     7    13    14    1
     8    14    15    1
     9    15    18    1
    10    18    19   ar
    11    19    20   ar
    12    20    21    1
    13    20    22   ar
    14    22    23   ar
    15    23    24    1
    16    23    25   ar
    17    15    16    1
    18    16    17    1
    19     6     7   ar
    20     7     8   ar
    21     8     9   ar
    22     9     1    1
    23     1     2    2
    24     1     3   am
    25     3    29    1
    26    29    40    1
    27    40    41    1
    28    41    42   ar
    29    42    43   ar
    30    43    44   ar
    31    44    45   ar
    32    45    46   ar
    33    46    47   ar
    34    47    48   ar
    35    48    49   ar
    36    29    30    1
    37    30    31    2
    38    30    32   am
    39    32    34    1
    40    34    35   ar
    41    35    36   ar
    42    36    37   ar
    43    37    38   ar
    44    38    39   ar
    45     9    10   ar
    46    10    11    1
    47    10     5   ar
    48    17    12    1
    49    49    41   ar
    50    39    34   ar
    51    25    18   ar
    52    49    44   ar
    53     3     4    1
    54    43    50    1
    55    32    33    1
@<TRIPOS>MOLECULE
*****
 50 55 0 0 0
SMALL
GASTEIGER

@<TRIPOS>ATOM
      1 C          -8.3144  -12.1883   29.9883 C.2     1  UNL1        0.2483
      2 O          -7.6868  -11.9305   31.0519 O.2     1  UNL1       -0.2701
      3 N          -9.6280  -11.6397   29.7818 N.am    1  UNL1       -0.2945
      4 H         -10.1740  -11.9138   28.9348 H       1  UNL1        0.1501
      5 C          -7.6503  -14.7963   27.2832 C.ar    1  UNL1        0.0756
      6 C          -6.3465  -14.4185   26.8862 C.ar    1  UNL1        0.0529
      7 C          -5.7014  -13.3614   27.5374 C.ar    1  UNL1        0.0149
      8 C          -6.3422  -12.6596   28.5554 C.ar    1  UNL1        0.0080
      9 C          -7.6491  -12.9919   28.9382 C.ar    1  UNL1        0.0809
     10 C          -8.2920  -14.0792   28.3149 C.ar    1  UNL1        0.1483
     11 F          -9.5019  -14.4963   28.7660 F       1  UNL1       -0.2039
     12 N          -5.6850  -15.0650   25.7866 N.pl3   1  UNL1       -0.3039
     13 C          -4.5415  -15.9477   26.0381 C.3     1  UNL1        0.1122
     14 C          -4.6592  -17.2076   25.1778 C.3     1  UNL1        0.1122
     15 N          -4.9195  -16.8768   23.7660 N.pl3   1  UNL1       -0.3040
     16 C          -5.2598  -15.4973   23.3817 C.3     1  UNL1        0.1122
     17 C          -6.1843  -14.8555   24.4224 C.3     1  UNL1        0.1122
     18 C          -4.6989  -17.8800   22.7501 C.ar    1  UNL1        0.0496
     19 C          -3.4026  -18.3631   22.4880 C.ar    1  UNL1        0.0260
     20 C          -3.1930  -19.3385   21.5072 C.ar    1  UNL1        0.0597
     21 CL         -1.5726  -19.9332   21.1943 Cl      1  UNL1       -0.0822
     22 C          -4.2741  -19.8429   20.7795 C.ar    1  UNL1        0.0229
     23 C          -5.5663  -19.3746   21.0320 C.ar    1  UNL1        0.0597
     24 CL         -6.9220  -20.0079   20.1161 Cl      1  UNL1       -0.0822
     25 C          -5.7793  -18.3997   22.0126 C.ar    1  UNL1        0.0260
     26 C          -8.9995  -15.8589   25.3295 C.3     1  UNL1        0.0774
     27 C          -8.3207  -15.9636   26.6600 C.2     1  UNL1        0.1769
     28 O          -8.3490  -17.0661   27.2705 O.2     1  UNL1       -0.2912
     29 C         -10.2066  -10.6171   30.6623 C.3     1  UNL1        0.1535
     30 C         -10.3734   -9.3165   29.8943 C.2     1  UNL1        0.2443
     31 O         -11.5296   -8.8972   29.6153 O.2     1  UNL1       -0.2730
     32 N          -9.2414   -8.5432   29.4594 N.am    1  UNL1       -0.2825
     33 H          -9.3636   -7.9331   28.6198 H       1  UNL1        0.1549
     34 C          -7.9340   -8.6259   30.0450 C.ar    1  UNL1        0.0535
     35 C          -7.7228   -8.2968   31.3918 C.ar    1  UNL1        0.0353
     36 C          -6.4363   -8.3919   31.9280 C.ar    1  UNL1        0.1002
     37 N          -5.3985   -8.7900   31.1449 N.ar    1  UNL1       -0.2422
     38 C          -5.5739   -9.0994   29.8327 C.ar    1  UNL1        0.1002
     39 C          -6.8434   -9.0123   29.2563 C.ar    1  UNL1        0.0353
     40 C         -11.5464  -11.1238   31.2336 C.3     1  UNL1        0.0569
     41 C         -11.3331  -11.9883   32.4431 C.ar    1  UNL1       -0.0017
     42 C         -10.2769  -11.8977   33.3450 C.ar    1  UNL1        0.0681
     43 N         -10.3307  -12.9108   34.2393 N.ar    1  UNL1       -0.3523
     44 C         -11.4037  -13.6474   33.9022 C.ar    1  UNL1        0.0563
     45 C         -11.8465  -14.8215   34.5098 C.ar    1  UNL1        0.0170
     46 C         -12.9791  -15.4560   33.9673 C.ar    1  UNL1        0.0015
     47 C         -13.6348  -14.9100   32.8418 C.ar    1  UNL1        0.0001
     48 C         -13.1648  -13.7241   32.2492 C.ar    1  UNL1        0.0012
     49 C         -12.0407  -13.1170   32.8096 C.ar    1  UNL1        0.0131
     50 H          -9.6576  -13.0952   35.0160 H       1  UNL1        0.1660
@<TRIPOS>BOND
     1    26    27    1
     2    27    28    2
     3    27     5    1
     4     5     6   ar
     5     6    12    1
     6    12    13    1
     7    13    14    1
     8    14    15    1
     9    15    18    1
    10    18    19   ar
    11    19    20   ar
    12    20    21    1
    13    20    22   ar
    14    22    23   ar
    15    23    24    1
    16    23    25   ar
    17    15    16    1
    18    16    17    1
    19     6     7   ar
    20     7     8   ar
    21     8     9   ar
    22     9     1    1
    23     1     2    2
    24     1     3   am
    25     3    29    1
    26    29    40    1
    27    40    41    1
    28    41    42   ar
    29    42    43   ar
    30    43    44   ar
    31    44    45   ar
    32    45    46   ar
    33    46    47   ar
    34    47    48   ar
    35    48    49   ar
    36    29    30    1
    37    30    31    2
    38    30    32   am
    39    32    34    1
    40    34    35   ar
    41    35    36   ar
    42    36    37   ar
    43    37    38   ar
    44    38    39   ar
    45     9    10   ar
    46    10    11    1
    47    10     5   ar
    48    17    12    1
    49    49    41   ar
    50    39    34   ar
    51    25    18   ar
    52    49    44   ar
    53     3     4    1
    54    43    50    1
    55    32    33    1
@<TRIPOS>MOLECULE
*****
 50 55 0 0 0
SMALL
GASTEIGER

@<TRIPOS>ATOM
      1 C          -9.0070  -12.4277   29.8281 C.2     1  UNL1        0.2483
      2 O         -10.2180  -12.7474   29.9787 O.2     1  UNL1       -0.2701
      3 N          -8.4363  -11.3846   30.6377 N.am    1  UNL1       -0.2945
      4 H          -7.4557  -11.0724   30.4605 H       1  UNL1        0.1501
      5 C          -7.8704  -15.0034   27.2524 C.ar    1  UNL1        0.0756
      6 C          -6.5608  -14.5368   26.9930 C.ar    1  UNL1        0.0529
      7 C          -6.0663  -13.4311   27.6936 C.ar    1  UNL1        0.0149
      8 C          -6.8619  -12.7686   28.6249 C.ar    1  UNL1        0.0080
      9 C          -8.1763  -13.1903   28.8691 C.ar    1  UNL1        0.0809
     10 C          -8.6696  -14.3256   28.1970 C.ar    1  UNL1        0.1483
     11 F          -9.8893  -14.8243   28.5209 F       1  UNL1       -0.2039
     12 N          -5.7395  -15.1432   25.9819 N.pl3   1  UNL1       -0.3039
     13 C          -4.6186  -16.0051   26.3703 C.3     1  UNL1        0.1122
     14 C          -4.5859  -17.2477   25.4781 C.3     1  UNL1        0.1122
     15 N          -4.6601  -16.8914   24.0505 N.pl3   1  UNL1       -0.3040
     16 C          -4.9802  -15.5117   23.6498 C.3     1  UNL1        0.1122
     17 C          -6.0538  -14.9146   24.5666 C.3     1  UNL1        0.1122
     18 C          -4.2778  -17.8663   23.0553 C.ar    1  UNL1        0.0496
     19 C          -5.2542  -18.6232   22.3799 C.ar    1  UNL1        0.0260
     20 C          -4.8810  -19.5629   21.4129 C.ar    1  UNL1        0.0597
     21 CL         -6.1091  -20.4960   20.5771 Cl      1  UNL1       -0.0822
     22 C          -3.5308  -19.7555   21.1086 C.ar    1  UNL1        0.0229
     23 C          -2.5518  -19.0084   21.7691 C.ar    1  UNL1        0.0597
     24 CL         -0.8571  -19.2530   21.3869 Cl      1  UNL1       -0.0822
     25 C          -2.9217  -18.0676   22.7362 C.ar    1  UNL1        0.0260
     26 C          -8.9548  -16.1684   25.1948 C.3     1  UNL1        0.0774
     27 C          -8.3853  -16.2205   26.5787 C.2     1  UNL1        0.1769
     28 O          -8.3733  -17.3236   27.1887 O.2     1  UNL1       -0.2912
     29 C          -9.1390  -10.8000   31.7868 C.3     1  UNL1        0.1535
     30 C          -8.8564  -11.6243   33.0318 C.2     1  UNL1        0.2443
     31 O          -7.8326  -11.3799   33.7263 O.2     1  UNL1       -0.2730
     32 N          -9.7233  -12.6955   33.4437 N.am    1  UNL1       -0.2825
     33 H          -9.3050  -13.4691   34.0083 H       1  UNL1        0.1549
     34 C         -11.0984  -12.8175   33.0522 C.ar    1  UNL1        0.0535
     35 C         -11.6515  -14.0664   32.7337 C.ar    1  UNL1        0.0353
     36 C         -12.9950  -14.1467   32.3593 C.ar    1  UNL1        0.1002
     37 N         -13.7538  -13.0202   32.2949 N.ar    1  UNL1       -0.2422
     38 C         -13.2375  -11.7960   32.5833 C.ar    1  UNL1        0.1002
     39 C         -11.8972  -11.6715   32.9567 C.ar    1  UNL1        0.0353
     40 C          -8.7110   -9.3288   31.9616 C.3     1  UNL1        0.0569
     41 C          -9.7977   -8.3878   31.5264 C.ar    1  UNL1       -0.0017
     42 C         -11.1597   -8.6697   31.4738 C.ar    1  UNL1        0.0681
     43 N         -11.8344   -7.6388   30.9159 N.ar    1  UNL1       -0.3523
     44 C         -10.9094   -6.7145   30.6041 C.ar    1  UNL1        0.0563
     45 C         -11.1190   -5.4902   29.9708 C.ar    1  UNL1        0.0170
     46 C          -9.9952   -4.6869   29.7039 C.ar    1  UNL1        0.0015
     47 C          -8.7021   -5.1211   30.0700 C.ar    1  UNL1        0.0001
     48 C          -8.5209   -6.3618   30.7073 C.ar    1  UNL1        0.0012
     49 C          -9.6537   -7.1358   30.9599 C.ar    1  UNL1        0.0131
     50 H         -12.8625   -7.5870   30.7401 H       1  UNL1        0.1660
@<TRIPOS>BOND
     1    26    27    1
     2    27    28    2
     3    27     5    1
     4     5     6   ar
     5     6    12    1
     6    12    13    1
     7    13    14    1
     8    14    15    1
     9    15    18    1
    10    18    19   ar
    11    19    20   ar
    12    20    21    1
    13    20    22   ar
    14    22    23   ar
    15    23    24    1
    16    23    25   ar
    17    15    16    1
    18    16    17    1
    19     6     7   ar
    20     7     8   ar
    21     8     9   ar
    22     9     1    1
    23     1     2    2
    24     1     3   am
    25     3    29    1
    26    29    40    1
    27    40    41    1
    28    41    42   ar
    29    42    43   ar
    30    43    44   ar
    31    44    45   ar
    32    45    46   ar
    33    46    47   ar
    34    47    48   ar
    35    48    49   ar
    36    29    30    1
    37    30    31    2
    38    30    32   am
    39    32    34    1
    40    34    35   ar
    41    35    36   ar
    42    36    37   ar
    43    37    38   ar
    44    38    39   ar
    45     9    10   ar
    46    10    11    1
    47    10     5   ar
    48    17    12    1
    49    49    41   ar
    50    39    34   ar
    51    25    18   ar
    52    49    44   ar
    53     3     4    1
    54    43    50    1
    55    32    33    1
@<TRIPOS>MOLECULE
*****
 50 55 0 0 0
SMALL
GASTEIGER

@<TRIPOS>ATOM
      1 C          -6.5839  -11.8135   29.3280 C.2     1  UNL1        0.2483
      2 O          -5.6543  -11.4461   30.0977 O.2     1  UNL1       -0.2701
      3 N          -7.8763  -11.1883   29.4177 N.am    1  UNL1       -0.2945
      4 H          -8.6631  -11.5443   28.8307 H       1  UNL1        0.1501
      5 C          -6.9357  -14.7877   26.9634 C.ar    1  UNL1        0.0756
      6 C          -5.7203  -14.6834   26.2478 C.ar    1  UNL1        0.0529
      7 C          -4.8010  -13.6832   26.5827 C.ar    1  UNL1        0.0149
      8 C          -5.0837  -12.7717   27.5969 C.ar    1  UNL1        0.0080
      9 C          -6.2991  -12.8325   28.2927 C.ar    1  UNL1        0.0809
     10 C          -7.2140  -13.8595   27.9888 C.ar    1  UNL1        0.1483
     11 F          -8.3319  -14.0119   28.7427 F       1  UNL1       -0.2039
     12 N          -5.4288  -15.5535   25.1421 N.pl3   1  UNL1       -0.3039
     13 C          -5.8617  -15.1874   23.7897 C.3     1  UNL1        0.1122
     14 C          -4.7396  -15.4746   22.7900 C.3     1  UNL1        0.1122
     15 N          -4.2090  -16.8398   22.9492 N.pl3   1  UNL1       -0.3040
     16 C          -4.5979  -17.6518   24.1136 C.3     1  UNL1        0.1122
     17 C          -4.6717  -16.7885   25.3781 C.3     1  UNL1        0.1122
     18 C          -3.4227  -17.4235   21.8870 C.ar    1  UNL1        0.0496
     19 C          -2.1808  -16.8677   21.5247 C.ar    1  UNL1        0.0260
     20 C          -1.4193  -17.4385   20.4992 C.ar    1  UNL1        0.0597
     21 CL          0.1278  -16.7369   20.0613 Cl      1  UNL1       -0.0822
     22 C          -1.8878  -18.5700   19.8263 C.ar    1  UNL1        0.0229
     23 C          -3.1172  -19.1337   20.1783 C.ar    1  UNL1        0.0597
     24 CL         -3.7044  -20.5533   19.3311 Cl      1  UNL1       -0.0822
     25 C          -3.8807  -18.5657   21.2037 C.ar    1  UNL1        0.0260
     26 C          -8.8141  -15.8372   25.5018 C.3     1  UNL1        0.0774
     27 C          -7.8881  -15.8883   26.6774 C.2     1  UNL1        0.1769
     28 O          -7.9461  -16.8805   27.4527 O.2     1  UNL1       -0.2912
     29 C          -8.1213   -9.9893   30.2289 C.3     1  UNL1        0.1535
     30 C          -7.6846  -10.2438   31.6619 C.2     1  UNL1        0.2443
     31 O          -6.6128   -9.7356   32.0902 O.2     1  UNL1       -0.2730
     32 N          -8.4574  -11.0651   32.5547 N.am    1  UNL1       -0.2825
     33 H          -7.9519  -11.5451   33.3332 H       1  UNL1        0.1549
     34 C          -9.8559  -11.3416   32.3907 C.ar    1  UNL1        0.0535
     35 C         -10.8295  -10.5055   32.9561 C.ar    1  UNL1        0.0353
     36 C         -12.1817  -10.8050   32.7730 C.ar    1  UNL1        0.1002
     37 N         -12.5467  -11.9046   32.0614 N.ar    1  UNL1       -0.2422
     38 C         -11.6224  -12.7397   31.5166 C.ar    1  UNL1        0.1002
     39 C         -10.2599  -12.4789   31.6808 C.ar    1  UNL1        0.0353
     40 C          -7.3847   -8.7850   29.6082 C.3     1  UNL1        0.0569
     41 C          -8.0869   -7.4945   29.9201 C.ar    1  UNL1       -0.0017
     42 C          -7.4817   -6.2647   30.1626 C.ar    1  UNL1        0.0681
     43 N          -8.4048   -5.3489   30.5345 N.ar    1  UNL1       -0.3523
     44 C          -9.5851   -5.9926   30.5414 C.ar    1  UNL1        0.0563
     45 C         -10.8283   -5.4726   30.8990 C.ar    1  UNL1        0.0170
     46 C         -11.9363   -6.3393   30.8710 C.ar    1  UNL1        0.0015
     47 C         -11.7783   -7.6907   30.4924 C.ar    1  UNL1        0.0001
     48 C         -10.5113   -8.1877   30.1373 C.ar    1  UNL1        0.0012
     49 C          -9.4318   -7.3048   30.1734 C.ar    1  UNL1        0.0131
     50 H          -8.2284   -4.3519   30.7899 H       1  UNL1        0.1660
@<TRIPOS>BOND
     1    26    27    1
     2    27    28    2
     3    27     5    1
     4     5     6   ar
     5     6    12    1
     6    12    13    1
     7    13    14    1
     8    14    15    1
     9    15    18    1
    10    18    19   ar
    11    19    20   ar
    12    20    21    1
    13    20    22   ar
    14    22    23   ar
    15    23    24    1
    16    23    25   ar
    17    15    16    1
    18    16    17    1
    19     6     7   ar
    20     7     8   ar
    21     8     9   ar
    22     9     1    1
    23     1     2    2
    24     1     3   am
    25     3    29    1
    26    29    40    1
    27    40    41    1
    28    41    42   ar
    29    42    43   ar
    30    43    44   ar
    31    44    45   ar
    32    45    46   ar
    33    46    47   ar
    34    47    48   ar
    35    48    49   ar
    36    29    30    1
    37    30    31    2
    38    30    32   am
    39    32    34    1
    40    34    35   ar
    41    35    36   ar
    42    36    37   ar
    43    37    38   ar
    44    38    39   ar
    45     9    10   ar
    46    10    11    1
    47    10     5   ar
    48    17    12    1
    49    49    41   ar
    50    39    34   ar
    51    25    18   ar
    52    49    44   ar
    53     3     4    1
    54    43    50    1
    55    32    33    1
@<TRIPOS>MOLECULE
*****
 50 55 0 0 0
SMALL
GASTEIGER

@<TRIPOS>ATOM
      1 C          -7.4256  -12.0282   29.3653 C.2     1  UNL1        0.2483
      2 O          -6.9167  -10.8745   29.3269 O.2     1  UNL1       -0.2701
      3 N          -8.4533  -12.3252   30.3269 N.am    1  UNL1       -0.2945
      4 H          -8.8201  -13.2998   30.4052 H       1  UNL1        0.1501
      5 C          -7.4369  -15.0060   26.9793 C.ar    1  UNL1        0.0756
      6 C          -6.1622  -14.8556   26.3854 C.ar    1  UNL1        0.0529
      7 C          -5.3169  -13.8237   26.8079 C.ar    1  UNL1        0.0149
      8 C          -5.7300  -12.9261   27.7892 C.ar    1  UNL1        0.0080
      9 C          -7.0045  -13.0331   28.3632 C.ar    1  UNL1        0.0809
     10 C          -7.8474  -14.0916   27.9721 C.ar    1  UNL1        0.1483
     11 F          -9.0272  -14.2867   28.6136 F       1  UNL1       -0.2039
     12 N          -5.7329  -15.7112   25.3138 N.pl3   1  UNL1       -0.3039
     13 C          -6.2738  -15.5202   23.9643 C.3     1  UNL1        0.1122
     14 C          -5.1484  -15.6311   22.9336 C.3     1  UNL1        0.1122
     15 N          -4.3440  -16.8482   23.1391 N.pl3   1  UNL1       -0.3040
     16 C          -4.5213  -17.6530   24.3587 C.3     1  UNL1        0.1122
     17 C          -4.7313  -16.7505   25.5797 C.3     1  UNL1        0.1122
     18 C          -3.4882  -17.3207   22.0754 C.ar    1  UNL1        0.0496
     19 C          -3.8487  -18.4468   21.3109 C.ar    1  UNL1        0.0260
     20 C          -3.0203  -18.8988   20.2780 C.ar    1  UNL1        0.0597
     21 CL         -3.4844  -20.3011   19.3318 Cl      1  UNL1       -0.0822
     22 C          -1.8254  -18.2313   19.9963 C.ar    1  UNL1        0.0229
     23 C          -1.4574  -17.1103   20.7452 C.ar    1  UNL1        0.0597
     24 CL          0.0440  -16.2747   20.3910 Cl      1  UNL1       -0.0822
     25 C          -2.2839  -16.6554   21.7783 C.ar    1  UNL1        0.0260
     26 C          -9.0945  -16.1355   25.3230 C.3     1  UNL1        0.0774
     27 C          -8.3163  -16.1395   26.6023 C.2     1  UNL1        0.1769
     28 O          -8.4395  -17.1204   27.3843 O.2     1  UNL1       -0.2912
     29 C          -9.0962  -11.2888   31.1445 C.3     1  UNL1        0.1535
     30 C         -10.5606  -11.6374   31.3524 C.2     1  UNL1        0.2443
     31 O         -10.8729  -12.7169   31.9247 O.2     1  UNL1       -0.2730
     32 N         -11.6166  -10.7709   30.9022 N.am    1  UNL1       -0.2825
     33 H         -12.5407  -11.2058   30.6807 H       1  UNL1        0.1549
     34 C         -11.4571   -9.3675   30.6492 C.ar    1  UNL1        0.0535
     35 C         -12.2098   -8.4157   31.3526 C.ar    1  UNL1        0.0353
     36 C         -12.0253   -7.0579   31.0812 C.ar    1  UNL1        0.1002
     37 N         -11.1308   -6.6666   30.1348 N.ar    1  UNL1       -0.2422
     38 C         -10.4005   -7.5697   29.4282 C.ar    1  UNL1        0.1002
     39 C         -10.5586   -8.9373   29.6653 C.ar    1  UNL1        0.0353
     40 C          -8.3436  -11.1443   32.4828 C.3     1  UNL1        0.0569
     41 C          -7.1244  -10.2800   32.3340 C.ar    1  UNL1       -0.0017
     42 C          -5.8005  -10.7058   32.3904 C.ar    1  UNL1        0.0681
     43 N          -4.9610   -9.6465   32.3447 N.ar    1  UNL1       -0.3523
     44 C          -5.7430   -8.5553   32.2729 C.ar    1  UNL1        0.0563
     45 C          -5.3331   -7.2230   32.2450 C.ar    1  UNL1        0.0170
     46 C          -6.3285   -6.2294   32.2074 C.ar    1  UNL1        0.0015
     47 C          -7.6952   -6.5855   32.2004 C.ar    1  UNL1        0.0001
     48 C          -8.0792   -7.9383   32.2298 C.ar    1  UNL1        0.0012
     49 C          -7.0702   -8.9011   32.2657 C.ar    1  UNL1        0.0131
     50 H          -3.9179   -9.6736   32.3846 H       1  UNL1        0.1660
@<TRIPOS>BOND
     1    26    27    1
     2    27    28    2
     3    27     5    1
     4     5     6   ar
     5     6    12    1
     6    12    13    1
     7    13    14    1
     8    14    15    1
     9    15    18    1
    10    18    19   ar
    11    19    20   ar
    12    20    21    1
    13    20    22   ar
    14    22    23   ar
    15    23    24    1
    16    23    25   ar
    17    15    16    1
    18    16    17    1
    19     6     7   ar
    20     7     8   ar
    21     8     9   ar
    22     9     1    1
    23     1     2    2
    24     1     3   am
    25     3    29    1
    26    29    40    1
    27    40    41    1
    28    41    42   ar
    29    42    43   ar
    30    43    44   ar
    31    44    45   ar
    32    45    46   ar
    33    46    47   ar
    34    47    48   ar
    35    48    49   ar
    36    29    30    1
    37    30    31    2
    38    30    32   am
    39    32    34    1
    40    34    35   ar
    41    35    36   ar
    42    36    37   ar
    43    37    38   ar
    44    38    39   ar
    45     9    10   ar
    46    10    11    1
    47    10     5   ar
    48    17    12    1
    49    49    41   ar
    50    39    34   ar
    51    25    18   ar
    52    49    44   ar
    53     3     4    1
    54    43    50    1
    55    32    33    1
