@<TRIPOS>MOLECULE
*****
 38 43 0 0 0
SMALL
GASTEIGER

@<TRIPOS>ATOM
      1 C          48.5881   11.6573  -25.3765 C.ar    1  UNL1        0.1097
      2 N          48.4208   11.6736  -26.7225 N.ar    1  UNL1       -0.1677
      3 N          47.1297   11.8556  -26.9749 N.ar    1  UNL1       -0.2319
      4 C          46.5692   12.0148  -28.3099 C.3     1  UNL1        0.1554
      5 C          46.4823   11.9835  -25.8063 C.ar    1  UNL1        0.1654
      6 N          45.1694   12.2642  -25.6252 N.ar    1  UNL1       -0.2050
      7 C          44.7101   12.3966  -24.3458 C.ar    1  UNL1        0.2014
      8 N          45.5599   12.2402  -23.2821 N.ar    1  UNL1       -0.2089
      9 C          46.8855   11.9573  -23.4581 C.ar    1  UNL1        0.1379
     10 C          47.3527   11.8469  -24.7697 C.ar    1  UNL1        0.0865
     11 C          50.7769   12.6238  -24.4797 C.ar    1  UNL1        0.0811
     12 C          49.9062   11.5767  -24.7298 C.ar    1  UNL1        0.0625
     13 C          50.6052   10.4393  -24.3472 C.ar    1  UNL1        0.1789
     14 N          51.8293   10.7924  -23.9058 N.ar    1  UNL1       -0.1626
     15 N          51.9254   12.1105  -23.9862 N.ar    1  UNL1       -0.2486
     16 C          53.1363   12.8436  -23.6331 C.3     1  UNL1        0.1537
     17 C          49.9718   18.2079  -25.7751 C.3     1  UNL1        0.0310
     18 C          50.1413   16.7558  -25.4396 C.ar    1  UNL1       -0.0218
     19 C          50.3006   15.8082  -26.4619 C.ar    1  UNL1       -0.0042
     20 C          50.4972   14.4601  -26.1490 C.ar    1  UNL1        0.0012
     21 C          50.5508   14.0451  -24.8106 C.ar    1  UNL1        0.0174
     22 C          50.4067   14.9945  -23.7881 C.ar    1  UNL1        0.0012
     23 C          50.2102   16.3427  -24.1006 C.ar    1  UNL1       -0.0042
     24 C          50.1244    9.0499  -24.3569 C.2     1  UNL1        0.3578
     25 O          50.1828    8.3763  -25.4199 O.2     1  UNL1       -0.2433
     26 O          49.6152    8.4679  -23.2003 O.3     1  UNL1       -0.4760
     27 H          49.2784    7.5127  -23.2033 H       1  UNL1        0.2955
     28 N          47.7290   11.7404  -22.3226 N.pl3   1  UNL1       -0.2917
     29 C          47.6271   10.5443  -21.5019 C.3     1  UNL1        0.0937
     30 C          48.4093   10.8341  -20.2246 C.3     1  UNL1        0.0391
     31 C          49.1244   12.1764  -20.4632 C.3     1  UNL1        0.0790
     32 C          48.4180   12.8278  -21.6548 C.3     1  UNL1        0.1081
     33 N          49.1963   13.0650  -19.2732 N.3     1  UNL1       -0.2723
     34 C          50.5784   13.3208  -18.8052 C.3     1  UNL1        0.0721
     35 C          51.0529   12.3075  -17.7487 C.3     1  UNL1        0.0174
     36 C          50.0027   12.0187  -16.6593 C.3     1  UNL1        0.0029
     37 C          48.7654   12.9067  -16.7860 C.3     1  UNL1        0.0174
     38 C          48.1889   12.8183  -18.2052 C.3     1  UNL1        0.0721
@<TRIPOS>BOND
     1    17    18    1
     2    18    19   ar
     3    19    20   ar
     4    20    21   ar
     5    21    11    1
     6    11    12   ar
     7    12     1    1
     8     1     2   ar
     9     2     3   ar
    10     3     4    1
    11     3     5   ar
    12     5     6   ar
    13     6     7   ar
    14     7     8   ar
    15     8     9   ar
    16     9    28    1
    17    28    29    1
    18    29    30    1
    19    30    31    1
    20    31    33    1
    21    33    34    1
    22    34    35    1
    23    35    36    1
    24    36    37    1
    25    37    38    1
    26    31    32    1
    27     9    10   ar
    28    12    13   ar
    29    13    24    1
    30    24    25    2
    31    24    26    1
    32    13    14   ar
    33    14    15   ar
    34    15    16    1
    35    21    22   ar
    36    22    23   ar
    37    23    18   ar
    38    15    11   ar
    39    10     1   ar
    40    10     5   ar
    41    32    28    1
    42    38    33    1
    43    26    27    1
@<TRIPOS>MOLECULE
*****
 38 43 0 0 0
SMALL
GASTEIGER

@<TRIPOS>ATOM
      1 C          47.2626   11.5807  -27.1173 C.ar    1  UNL1        0.1097
      2 N          47.1999   10.4415  -27.8511 N.ar    1  UNL1       -0.1677
      3 N          46.6872   10.7440  -29.0382 N.ar    1  UNL1       -0.2319
      4 C          46.5426    9.7963  -30.1349 C.3     1  UNL1        0.1554
      5 C          46.4518   12.0647  -29.0752 C.ar    1  UNL1        0.1654
      6 N          46.0089   12.7871  -30.1323 N.ar    1  UNL1       -0.2050
      7 C          45.8740   14.1374  -29.9778 C.ar    1  UNL1        0.2014
      8 N          46.1733   14.7338  -28.7808 N.ar    1  UNL1       -0.2089
      9 C          46.6208   14.0107  -27.7108 C.ar    1  UNL1        0.1379
     10 C          46.7789   12.6338  -27.8837 C.ar    1  UNL1        0.0865
     11 C          49.1912   11.3770  -25.4535 C.ar    1  UNL1        0.0811
     12 C          47.8730   11.6453  -25.7811 C.ar    1  UNL1        0.0625
     13 C          47.2456   11.8654  -24.5619 C.ar    1  UNL1        0.1789
     14 N          48.1413   11.7228  -23.5642 N.ar    1  UNL1       -0.1626
     15 N          49.3125   11.4307  -24.1087 N.ar    1  UNL1       -0.2486
     16 C          50.5112   11.1614  -23.3220 C.3     1  UNL1        0.1537
     17 C          53.3375    9.8366  -29.1876 C.3     1  UNL1        0.0310
     18 C          52.2821   10.2160  -28.1917 C.ar    1  UNL1       -0.0218
     19 C          52.3888   11.4150  -27.4709 C.ar    1  UNL1       -0.0042
     20 C          51.3865   11.7880  -26.5709 C.ar    1  UNL1        0.0012
     21 C          50.2589   10.9740  -26.3906 C.ar    1  UNL1        0.0174
     22 C          50.1447    9.7826  -27.1222 C.ar    1  UNL1        0.0012
     23 C          51.1467    9.4094  -28.0225 C.ar    1  UNL1       -0.0042
     24 C          45.8424   12.2409  -24.3343 C.2     1  UNL1        0.3578
     25 O          45.5253   12.8665  -23.2878 O.2     1  UNL1       -0.2433
     26 O          44.8625   11.9216  -25.2689 O.3     1  UNL1       -0.4760
     27 H          43.8939   12.1739  -25.1142 H       1  UNL1        0.2955
     28 N          46.8646   14.6595  -26.4588 N.pl3   1  UNL1       -0.2917
     29 C          45.8008   15.2952  -25.6981 C.3     1  UNL1        0.0937
     30 C          46.4861   16.1596  -24.6443 C.3     1  UNL1        0.0391
     31 C          47.9841   15.8132  -24.7238 C.3     1  UNL1        0.0790
     32 C          48.1866   15.1104  -26.0684 C.3     1  UNL1        0.1081
     33 N          48.9021   16.9661  -24.5262 N.3     1  UNL1       -0.2723
     34 C          48.3207   18.2656  -24.9362 C.3     1  UNL1        0.0721
     35 C          48.6168   18.6206  -26.4040 C.3     1  UNL1        0.0174
     36 C          50.0789   18.3634  -26.8154 C.3     1  UNL1        0.0029
     37 C          50.9549   17.9404  -25.6367 C.3     1  UNL1        0.0174
     38 C          50.3251   16.7476  -24.9054 C.3     1  UNL1        0.0721
@<TRIPOS>BOND
     1    17    18    1
     2    18    19   ar
     3    19    20   ar
     4    20    21   ar
     5    21    11    1
     6    11    12   ar
     7    12     1    1
     8     1     2   ar
     9     2     3   ar
    10     3     4    1
    11     3     5   ar
    12     5     6   ar
    13     6     7   ar
    14     7     8   ar
    15     8     9   ar
    16     9    28    1
    17    28    29    1
    18    29    30    1
    19    30    31    1
    20    31    33    1
    21    33    34    1
    22    34    35    1
    23    35    36    1
    24    36    37    1
    25    37    38    1
    26    31    32    1
    27     9    10   ar
    28    12    13   ar
    29    13    24    1
    30    24    25    2
    31    24    26    1
    32    13    14   ar
    33    14    15   ar
    34    15    16    1
    35    21    22   ar
    36    22    23   ar
    37    23    18   ar
    38    15    11   ar
    39    10     1   ar
    40    10     5   ar
    41    32    28    1
    42    38    33    1
    43    26    27    1
@<TRIPOS>MOLECULE
*****
 38 43 0 0 0
SMALL
GASTEIGER

@<TRIPOS>ATOM
      1 C          49.4377   10.8387  -26.2619 C.ar    1  UNL1        0.1097
      2 N          49.3279    9.6881  -26.9719 N.ar    1  UNL1       -0.1677
      3 N          50.4905    9.4625  -27.5729 N.ar    1  UNL1       -0.2319
      4 C          50.7904    8.2737  -28.3593 C.3     1  UNL1        0.1554
      5 C          51.3432   10.4401  -27.2290 C.ar    1  UNL1        0.1654
      6 N          52.6532   10.5367  -27.5606 N.ar    1  UNL1       -0.2050
      7 C          53.3647   11.5948  -27.0710 C.ar    1  UNL1        0.2014
      8 N          52.7592   12.5310  -26.2741 N.ar    1  UNL1       -0.2089
      9 C          51.4382   12.4389  -25.9357 C.ar    1  UNL1        0.1379
     10 C          50.7231   11.3416  -26.4207 C.ar    1  UNL1        0.0865
     11 C          47.2081   11.9874  -25.7736 C.ar    1  UNL1        0.0811
     12 C          48.3732   11.3484  -25.3849 C.ar    1  UNL1        0.0625
     13 C          48.3614   11.4093  -23.9975 C.ar    1  UNL1        0.1789
     14 N          47.2546   12.0606  -23.5865 N.ar    1  UNL1       -0.1626
     15 N          46.5628   12.4043  -24.6619 N.ar    1  UNL1       -0.2486
     16 C          45.3217   13.1686  -24.5996 C.3     1  UNL1        0.1537
     17 C          45.6684   13.1553  -31.2301 C.3     1  UNL1        0.0310
     18 C          46.0293   12.8478  -29.8072 C.ar    1  UNL1       -0.0218
     19 C          46.3204   11.5309  -29.4206 C.ar    1  UNL1       -0.0042
     20 C          46.6943   11.2493  -28.1035 C.ar    1  UNL1        0.0012
     21 C          46.7952   12.2822  -27.1604 C.ar    1  UNL1        0.0174
     22 C          46.5189   13.6011  -27.5504 C.ar    1  UNL1        0.0012
     23 C          46.1451   13.8832  -28.8674 C.ar    1  UNL1       -0.0042
     24 C          49.3469   10.8350  -23.0697 C.2     1  UNL1        0.3578
     25 O          49.3404   11.1818  -21.8586 O.2     1  UNL1       -0.2433
     26 O          50.2800    9.9036  -23.5140 O.3     1  UNL1       -0.4760
     27 H          50.9639    9.5089  -22.8797 H       1  UNL1        0.2955
     28 N          50.8257   13.4680  -25.1523 N.pl3   1  UNL1       -0.2917
     29 C          50.8613   13.4568  -23.6986 C.3     1  UNL1        0.0937
     30 C          49.8284   14.4804  -23.2374 C.3     1  UNL1        0.0391
     31 C          49.3611   15.2107  -24.5096 C.3     1  UNL1        0.0790
     32 C          49.7883   14.3295  -25.6861 C.3     1  UNL1        0.1081
     33 N          47.9148   15.5544  -24.5357 N.3     1  UNL1       -0.2723
     34 C          47.4987   16.2817  -25.7576 C.3     1  UNL1        0.0721
     35 C          47.5890   17.8105  -25.6075 C.3     1  UNL1        0.0174
     36 C          47.0221   18.3314  -24.2733 C.3     1  UNL1        0.0029
     37 C          46.3652   17.2287  -23.4437 C.3     1  UNL1        0.0174
     38 C          47.3329   16.0525  -23.2591 C.3     1  UNL1        0.0721
@<TRIPOS>BOND
     1    17    18    1
     2    18    19   ar
     3    19    20   ar
     4    20    21   ar
     5    21    11    1
     6    11    12   ar
     7    12     1    1
     8     1     2   ar
     9     2     3   ar
    10     3     4    1
    11     3     5   ar
    12     5     6   ar
    13     6     7   ar
    14     7     8   ar
    15     8     9   ar
    16     9    28    1
    17    28    29    1
    18    29    30    1
    19    30    31    1
    20    31    33    1
    21    33    34    1
    22    34    35    1
    23    35    36    1
    24    36    37    1
    25    37    38    1
    26    31    32    1
    27     9    10   ar
    28    12    13   ar
    29    13    24    1
    30    24    25    2
    31    24    26    1
    32    13    14   ar
    33    14    15   ar
    34    15    16    1
    35    21    22   ar
    36    22    23   ar
    37    23    18   ar
    38    15    11   ar
    39    10     1   ar
    40    10     5   ar
    41    32    28    1
    42    38    33    1
    43    26    27    1
@<TRIPOS>MOLECULE
*****
 38 43 0 0 0
SMALL
GASTEIGER

@<TRIPOS>ATOM
      1 C          47.8124   12.5972  -25.4157 C.ar    1  UNL1        0.1097
      2 N          47.0794   12.3218  -26.5234 N.ar    1  UNL1       -0.1677
      3 N          46.9867   13.4342  -27.2430 N.ar    1  UNL1       -0.2319
      4 C          46.3463   13.5155  -28.5487 C.3     1  UNL1        0.1554
      5 C          47.6758   14.4022  -26.6193 C.ar    1  UNL1        0.1654
      6 N          47.8997   15.6625  -27.0631 N.ar    1  UNL1       -0.2050
      7 C          48.6685   16.4887  -26.2939 C.ar    1  UNL1        0.2014
      8 N          49.1876   16.0480  -25.1045 N.ar    1  UNL1       -0.2089
      9 C          48.9657   14.7778  -24.6515 C.ar    1  UNL1        0.1379
     10 C          48.1984   13.9313  -25.4549 C.ar    1  UNL1        0.0865
     11 C          49.2816   10.7058  -24.5251 C.ar    1  UNL1        0.0811
     12 C          48.2068   11.5740  -24.4361 C.ar    1  UNL1        0.0625
     13 C          47.5300   11.1792  -23.2895 C.ar    1  UNL1        0.1789
     14 N          48.1629   10.1254  -22.7355 N.ar    1  UNL1       -0.1626
     15 N          49.2191    9.8467  -23.4839 N.ar    1  UNL1       -0.2486
     16 C          50.1172    8.7303  -23.2093 C.3     1  UNL1        0.1537
     17 C          53.0711   10.4941  -28.8958 C.3     1  UNL1        0.0310
     18 C          52.1102   10.5214  -27.7445 C.ar    1  UNL1       -0.0218
     19 C          52.2976   11.4262  -26.6887 C.ar    1  UNL1       -0.0042
     20 C          51.3813   11.4788  -25.6344 C.ar    1  UNL1        0.0012
     21 C          50.2594   10.6375  -25.6295 C.ar    1  UNL1        0.0174
     22 C          50.0636    9.7433  -26.6925 C.ar    1  UNL1        0.0012
     23 C          50.9796    9.6906  -27.7471 C.ar    1  UNL1       -0.0042
     24 C          46.3347   11.7997  -22.6994 C.2     1  UNL1        0.3578
     25 O          45.5320   12.4329  -23.4354 O.2     1  UNL1       -0.2433
     26 O          46.0757   11.6851  -21.3372 O.3     1  UNL1       -0.4760
     27 H          45.2563   12.1149  -20.9254 H       1  UNL1        0.2955
     28 N          49.4728   14.3730  -23.3760 N.pl3   1  UNL1       -0.2917
     29 C          50.8146   13.8367  -23.2129 C.3     1  UNL1        0.0937
     30 C          50.8567   13.2041  -21.8253 C.3     1  UNL1        0.0391
     31 C          49.5335   13.5959  -21.1428 C.3     1  UNL1        0.0790
     32 C          48.5981   14.0568  -22.2632 C.3     1  UNL1        0.1081
     33 N          48.9368   12.5377  -20.2855 N.3     1  UNL1       -0.2723
     34 C          48.1689   13.0679  -19.1348 C.3     1  UNL1        0.0721
     35 C          49.0258   13.2410  -17.8684 C.3     1  UNL1        0.0174
     36 C          49.9486   12.0412  -17.5823 C.3     1  UNL1        0.0029
     37 C          49.7128   10.8766  -18.5433 C.3     1  UNL1        0.0174
     38 C          49.7996   11.3592  -19.9972 C.3     1  UNL1        0.0721
@<TRIPOS>BOND
     1    17    18    1
     2    18    19   ar
     3    19    20   ar
     4    20    21   ar
     5    21    11    1
     6    11    12   ar
     7    12     1    1
     8     1     2   ar
     9     2     3   ar
    10     3     4    1
    11     3     5   ar
    12     5     6   ar
    13     6     7   ar
    14     7     8   ar
    15     8     9   ar
    16     9    28    1
    17    28    29    1
    18    29    30    1
    19    30    31    1
    20    31    33    1
    21    33    34    1
    22    34    35    1
    23    35    36    1
    24    36    37    1
    25    37    38    1
    26    31    32    1
    27     9    10   ar
    28    12    13   ar
    29    13    24    1
    30    24    25    2
    31    24    26    1
    32    13    14   ar
    33    14    15   ar
    34    15    16    1
    35    21    22   ar
    36    22    23   ar
    37    23    18   ar
    38    15    11   ar
    39    10     1   ar
    40    10     5   ar
    41    32    28    1
    42    38    33    1
    43    26    27    1
@<TRIPOS>MOLECULE
*****
 38 43 0 0 0
SMALL
GASTEIGER

@<TRIPOS>ATOM
      1 C          48.6016   13.5240  -25.4089 C.ar    1  UNL1        0.1097
      2 N          48.3685   14.1827  -26.5716 N.ar    1  UNL1       -0.1677
      3 N          47.0818   14.0473  -26.8709 N.ar    1  UNL1       -0.2319
      4 C          46.4316   14.6885  -28.0057 C.3     1  UNL1        0.1554
      5 C          46.4918   13.3359  -25.8978 C.ar    1  UNL1        0.1654
      6 N          45.1735   13.0467  -25.7806 N.ar    1  UNL1       -0.2050
      7 C          44.7643   12.3412  -24.6852 C.ar    1  UNL1        0.2014
      8 N          45.6708   11.9351  -23.7409 N.ar    1  UNL1       -0.2089
      9 C          47.0019   12.2239  -23.8532 C.ar    1  UNL1        0.1379
     10 C          47.4094   12.9662  -24.9640 C.ar    1  UNL1        0.0865
     11 C          50.9959   12.7402  -24.9821 C.ar    1  UNL1        0.0811
     12 C          49.8996   13.5437  -24.7183 C.ar    1  UNL1        0.0625
     13 C          50.2607   14.2727  -23.5929 C.ar    1  UNL1        0.1789
     14 N          51.4999   13.9115  -23.2030 N.ar    1  UNL1       -0.1626
     15 N          51.9381   12.9892  -24.0460 N.ar    1  UNL1       -0.2486
     16 C          53.2330   12.3321  -23.9046 C.3     1  UNL1        0.1537
     17 C          51.3800    8.6029  -29.0123 C.3     1  UNL1        0.0310
     18 C          51.2610    9.6975  -27.9938 C.ar    1  UNL1       -0.0218
     19 C          50.1745    9.7222  -27.1065 C.ar    1  UNL1       -0.0042
     20 C          50.0829   10.7200  -26.1319 C.ar    1  UNL1        0.0012
     21 C          51.0831   11.6969  -26.0235 C.ar    1  UNL1        0.0174
     22 C          52.1772   11.6637  -26.9007 C.ar    1  UNL1        0.0012
     23 C          52.2693   10.6659  -27.8753 C.ar    1  UNL1       -0.0042
     24 C          49.4778   15.3170  -22.9158 C.2     1  UNL1        0.3578
     25 O          49.2855   15.2460  -21.6728 O.2     1  UNL1       -0.2433
     26 O          48.9562   16.3891  -23.6329 O.3     1  UNL1       -0.4760
     27 H          48.4122   17.1082  -23.1717 H       1  UNL1        0.2955
     28 N          47.9269   11.7306  -22.8791 N.pl3   1  UNL1       -0.2917
     29 C          48.6534   10.4848  -23.0651 C.3     1  UNL1        0.0937
     30 C          49.2421   10.1256  -21.7042 C.3     1  UNL1        0.0391
     31 C          48.9791   11.3412  -20.7968 C.3     1  UNL1        0.0790
     32 C          47.8966   12.1668  -21.4963 C.3     1  UNL1        0.1081
     33 N          48.6363   11.0061  -19.3893 N.3     1  UNL1       -0.2723
     34 C          47.4014   11.6661  -18.9052 C.3     1  UNL1        0.0721
     35 C          47.6687   13.0269  -18.2383 C.3     1  UNL1        0.0174
     36 C          48.8635   13.0105  -17.2660 C.3     1  UNL1        0.0029
     37 C          49.4409   11.6094  -17.0687 C.3     1  UNL1        0.0174
     38 C          49.7702   10.9726  -18.4252 C.3     1  UNL1        0.0721
@<TRIPOS>BOND
     1    17    18    1
     2    18    19   ar
     3    19    20   ar
     4    20    21   ar
     5    21    11    1
     6    11    12   ar
     7    12     1    1
     8     1     2   ar
     9     2     3   ar
    10     3     4    1
    11     3     5   ar
    12     5     6   ar
    13     6     7   ar
    14     7     8   ar
    15     8     9   ar
    16     9    28    1
    17    28    29    1
    18    29    30    1
    19    30    31    1
    20    31    33    1
    21    33    34    1
    22    34    35    1
    23    35    36    1
    24    36    37    1
    25    37    38    1
    26    31    32    1
    27     9    10   ar
    28    12    13   ar
    29    13    24    1
    30    24    25    2
    31    24    26    1
    32    13    14   ar
    33    14    15   ar
    34    15    16    1
    35    21    22   ar
    36    22    23   ar
    37    23    18   ar
    38    15    11   ar
    39    10     1   ar
    40    10     5   ar
    41    32    28    1
    42    38    33    1
    43    26    27    1
@<TRIPOS>MOLECULE
*****
 38 43 0 0 0
SMALL
GASTEIGER

@<TRIPOS>ATOM
      1 C          50.2149   13.9234  -25.0195 C.ar    1  UNL1        0.1097
      2 N          50.7212   14.7864  -25.9355 N.ar    1  UNL1       -0.1677
      3 N          49.9925   15.8962  -25.9026 N.ar    1  UNL1       -0.2319
      4 C          50.2812   17.0906  -26.6849 C.3     1  UNL1        0.1554
      5 C          49.0499   15.7576  -24.9576 C.ar    1  UNL1        0.1654
      6 N          48.1562   16.6911  -24.5507 N.ar    1  UNL1       -0.2050
      7 C          47.3014   16.3649  -23.5368 C.ar    1  UNL1        0.2014
      8 N          47.3492   15.1230  -22.9592 N.ar    1  UNL1       -0.2089
      9 C          48.2485   14.1771  -23.3648 C.ar    1  UNL1        0.1379
     10 C          49.1351   14.5261  -24.3860 C.ar    1  UNL1        0.0865
     11 C          50.5123   11.3965  -25.2550 C.ar    1  UNL1        0.0811
     12 C          50.8335   12.6266  -24.7068 C.ar    1  UNL1        0.0625
     13 C          51.7715   12.3393  -23.7238 C.ar    1  UNL1        0.1789
     14 N          51.9854   11.0086  -23.6832 N.ar    1  UNL1       -0.1626
     15 N          51.2251   10.4467  -24.6102 N.ar    1  UNL1       -0.2486
     16 C          51.1636    9.0046  -24.8228 C.3     1  UNL1        0.1537
     17 C          46.4888   10.4518  -29.3080 C.3     1  UNL1        0.0310
     18 C          47.5158   10.6673  -28.2364 C.ar    1  UNL1       -0.0218
     19 C          48.7522   10.0071  -28.2993 C.ar    1  UNL1       -0.0042
     20 C          49.7246   10.2370  -27.3218 C.ar    1  UNL1        0.0012
     21 C          49.4782   11.1398  -26.2774 C.ar    1  UNL1        0.0174
     22 C          48.2479   11.8114  -26.2226 C.ar    1  UNL1        0.0012
     23 C          47.2753   11.5820  -27.2000 C.ar    1  UNL1       -0.0042
     24 C          52.4852   13.2945  -22.8635 C.2     1  UNL1        0.3578
     25 O          53.6805   13.0681  -22.5367 O.2     1  UNL1       -0.2433
     26 O          51.8564   14.4519  -22.4155 O.3     1  UNL1       -0.4760
     27 H          52.3424   15.1104  -21.8187 H       1  UNL1        0.2955
     28 N          48.2278   12.8712  -22.7800 N.pl3   1  UNL1       -0.2917
     29 C          47.1342   11.9402  -23.0075 C.3     1  UNL1        0.0937
     30 C          47.2880   10.8367  -21.9654 C.3     1  UNL1        0.0391
     31 C          48.6415   11.0918  -21.2775 C.3     1  UNL1        0.0790
     32 C          49.0242   12.5348  -21.6156 C.3     1  UNL1        0.1081
     33 N          48.6616   10.8117  -19.8174 N.3     1  UNL1       -0.2723
     34 C          47.3815   11.1155  -19.1364 C.3     1  UNL1        0.0721
     35 C          47.3165   12.5533  -18.5919 C.3     1  UNL1        0.0174
     36 C          48.6011   12.9935  -17.8646 C.3     1  UNL1        0.0029
     37 C          49.6130   11.8574  -17.7203 C.3     1  UNL1        0.0174
     38 C          49.8934   11.2166  -19.0859 C.3     1  UNL1        0.0721
@<TRIPOS>BOND
     1    17    18    1
     2    18    19   ar
     3    19    20   ar
     4    20    21   ar
     5    21    11    1
     6    11    12   ar
     7    12     1    1
     8     1     2   ar
     9     2     3   ar
    10     3     4    1
    11     3     5   ar
    12     5     6   ar
    13     6     7   ar
    14     7     8   ar
    15     8     9   ar
    16     9    28    1
    17    28    29    1
    18    29    30    1
    19    30    31    1
    20    31    33    1
    21    33    34    1
    22    34    35    1
    23    35    36    1
    24    36    37    1
    25    37    38    1
    26    31    32    1
    27     9    10   ar
    28    12    13   ar
    29    13    24    1
    30    24    25    2
    31    24    26    1
    32    13    14   ar
    33    14    15   ar
    34    15    16    1
    35    21    22   ar
    36    22    23   ar
    37    23    18   ar
    38    15    11   ar
    39    10     1   ar
    40    10     5   ar
    41    32    28    1
    42    38    33    1
    43    26    27    1
@<TRIPOS>MOLECULE
*****
 38 43 0 0 0
SMALL
GASTEIGER

@<TRIPOS>ATOM
      1 C          50.2090   11.5352  -22.5810 C.ar    1  UNL1        0.1097
      2 N          50.0578   10.3864  -21.8757 N.ar    1  UNL1       -0.1677
      3 N          48.7646   10.2287  -21.6178 N.ar    1  UNL1       -0.2319
      4 C          48.1970    9.0644  -20.9515 C.3     1  UNL1        0.1554
      5 C          48.0928   11.2478  -22.1757 C.ar    1  UNL1        0.1654
      6 N          46.7493   11.4175  -22.2151 N.ar    1  UNL1       -0.2050
      7 C          46.2574   12.5080  -22.8739 C.ar    1  UNL1        0.2014
      8 N          47.1077   13.4036  -23.4682 N.ar    1  UNL1       -0.2089
      9 C          48.4639   13.2378  -23.4323 C.ar    1  UNL1        0.1379
     10 C          48.9584   12.1078  -22.7772 C.ar    1  UNL1        0.0865
     11 C          52.0533   11.6243  -24.3473 C.ar    1  UNL1        0.0811
     12 C          51.4990   11.9796  -23.1294 C.ar    1  UNL1        0.0625
     13 C          52.4794   12.7397  -22.5053 C.ar    1  UNL1        0.1789
     14 N          53.5618   12.8202  -23.3054 N.ar    1  UNL1       -0.1626
     15 N          53.2974   12.1476  -24.4149 N.ar    1  UNL1       -0.2486
     16 C          54.2642   11.9815  -25.4948 C.3     1  UNL1        0.1537
     17 C          49.7681    8.0701  -28.3038 C.3     1  UNL1        0.0310
     18 C          50.3239    9.0031  -27.2692 C.ar    1  UNL1       -0.0218
     19 C          50.5452    8.5542  -25.9585 C.ar    1  UNL1       -0.0042
     20 C          51.0990    9.4118  -25.0038 C.ar    1  UNL1        0.0012
     21 C          51.4512   10.7240  -25.3511 C.ar    1  UNL1        0.0174
     22 C          51.2441   11.1685  -26.6653 C.ar    1  UNL1        0.0012
     23 C          50.6904   10.3111  -27.6205 C.ar    1  UNL1       -0.0042
     24 C          52.3928   13.4124  -21.2007 C.2     1  UNL1        0.3578
     25 O          52.5256   14.6633  -21.1332 O.2     1  UNL1       -0.2433
     26 O          52.1547   12.6818  -20.0408 O.3     1  UNL1       -0.4760
     27 H          52.0991   13.1402  -19.1394 H       1  UNL1        0.2955
     28 N          49.3222   14.2258  -24.0111 N.pl3   1  UNL1       -0.2917
     29 C          49.8331   15.3505  -23.2438 C.3     1  UNL1        0.0937
     30 C          50.3913   16.3428  -24.2592 C.3     1  UNL1        0.0391
     31 C          50.3516   15.6221  -25.6191 C.3     1  UNL1        0.0790
     32 C          49.3986   14.4372  -25.4439 C.3     1  UNL1        0.1081
     33 N          49.9959   16.4885  -26.7739 N.3     1  UNL1       -0.2723
     34 C          50.6862   17.7993  -26.7683 C.3     1  UNL1        0.0721
     35 C          49.8895   18.8955  -26.0391 C.3     1  UNL1        0.0174
     36 C          48.3924   18.9108  -26.4014 C.3     1  UNL1        0.0029
     37 C          48.0470   17.9210  -27.5134 C.3     1  UNL1        0.0174
     38 C          48.5573   16.5188  -27.1563 C.3     1  UNL1        0.0721
@<TRIPOS>BOND
     1    17    18    1
     2    18    19   ar
     3    19    20   ar
     4    20    21   ar
     5    21    11    1
     6    11    12   ar
     7    12     1    1
     8     1     2   ar
     9     2     3   ar
    10     3     4    1
    11     3     5   ar
    12     5     6   ar
    13     6     7   ar
    14     7     8   ar
    15     8     9   ar
    16     9    28    1
    17    28    29    1
    18    29    30    1
    19    30    31    1
    20    31    33    1
    21    33    34    1
    22    34    35    1
    23    35    36    1
    24    36    37    1
    25    37    38    1
    26    31    32    1
    27     9    10   ar
    28    12    13   ar
    29    13    24    1
    30    24    25    2
    31    24    26    1
    32    13    14   ar
    33    14    15   ar
    34    15    16    1
    35    21    22   ar
    36    22    23   ar
    37    23    18   ar
    38    15    11   ar
    39    10     1   ar
    40    10     5   ar
    41    32    28    1
    42    38    33    1
    43    26    27    1
@<TRIPOS>MOLECULE
*****
 38 43 0 0 0
SMALL
GASTEIGER

@<TRIPOS>ATOM
      1 C          50.5976   12.5067  -24.1377 C.ar    1  UNL1        0.1097
      2 N          51.4030   12.7372  -25.2046 N.ar    1  UNL1       -0.1677
      3 N          51.7988   11.5633  -25.6830 N.ar    1  UNL1       -0.2319
      4 C          52.6078   11.3970  -26.8828 C.3     1  UNL1        0.1554
      5 C          51.2311   10.5927  -24.9504 C.ar    1  UNL1        0.1654
      6 N          51.3111    9.2567  -25.1604 N.ar    1  UNL1       -0.2050
      7 C          50.6198    8.4308  -24.3205 C.ar    1  UNL1        0.2014
      8 N          49.8757    8.9485  -23.2928 N.ar    1  UNL1       -0.2089
      9 C          49.7907   10.2952  -23.0759 C.ar    1  UNL1        0.1379
     10 C          50.4811   11.1346  -23.9532 C.ar    1  UNL1        0.0865
     11 C          48.7553   14.2504  -23.8298 C.ar    1  UNL1        0.0811
     12 C          49.8913   13.5756  -23.4161 C.ar    1  UNL1        0.0625
     13 C          50.2718   14.2141  -22.2430 C.ar    1  UNL1        0.1789
     14 N          49.4144   15.2215  -21.9821 N.ar    1  UNL1       -0.1626
     15 N          48.5015   15.2363  -22.9412 N.ar    1  UNL1       -0.2486
     16 C          47.4339   16.2284  -23.0090 C.3     1  UNL1        0.1537
     17 C          45.9219   13.3284  -28.7926 C.3     1  UNL1        0.0310
     18 C          46.6246   13.5864  -27.4928 C.ar    1  UNL1       -0.0218
     19 C          46.5486   12.6506  -26.4503 C.ar    1  UNL1       -0.0042
     20 C          47.2346   12.8723  -25.2527 C.ar    1  UNL1        0.0012
     21 C          48.0158   14.0251  -25.0879 C.ar    1  UNL1        0.0174
     22 C          48.1042   14.9536  -26.1357 C.ar    1  UNL1        0.0012
     23 C          47.4185   14.7322  -27.3335 C.ar    1  UNL1       -0.0042
     24 C          51.3941   13.8652  -21.3595 C.2     1  UNL1        0.3578
     25 O          52.3318   13.1457  -21.7957 O.2     1  UNL1       -0.2433
     26 O          51.4362   14.3310  -20.0492 O.3     1  UNL1       -0.4760
     27 H          52.2048   14.0893  -19.4354 H       1  UNL1        0.2955
     28 N          49.0537   10.7957  -21.9560 N.pl3   1  UNL1       -0.2917
     29 C          47.7797   11.4788  -22.1125 C.3     1  UNL1        0.0937
     30 C          47.4923   12.1594  -20.7777 C.3     1  UNL1        0.0391
     31 C          48.5709   11.6507  -19.8040 C.3     1  UNL1        0.0790
     32 C          49.6801   11.0535  -20.6736 C.3     1  UNL1        0.1081
     33 N          49.0708   12.6670  -18.8407 N.3     1  UNL1       -0.2723
     34 C          50.2420   12.2149  -18.0543 C.3     1  UNL1        0.0721
     35 C          49.8513   11.5363  -16.7296 C.3     1  UNL1        0.0174
     36 C          48.7541   12.2894  -15.9537 C.3     1  UNL1        0.0029
     37 C          48.3875   13.6241  -16.6016 C.3     1  UNL1        0.0174
     38 C          48.0352   13.4198  -18.0808 C.3     1  UNL1        0.0721
@<TRIPOS>BOND
     1    17    18    1
     2    18    19   ar
     3    19    20   ar
     4    20    21   ar
     5    21    11    1
     6    11    12   ar
     7    12     1    1
     8     1     2   ar
     9     2     3   ar
    10     3     4    1
    11     3     5   ar
    12     5     6   ar
    13     6     7   ar
    14     7     8   ar
    15     8     9   ar
    16     9    28    1
    17    28    29    1
    18    29    30    1
    19    30    31    1
    20    31    33    1
    21    33    34    1
    22    34    35    1
    23    35    36    1
    24    36    37    1
    25    37    38    1
    26    31    32    1
    27     9    10   ar
    28    12    13   ar
    29    13    24    1
    30    24    25    2
    31    24    26    1
    32    13    14   ar
    33    14    15   ar
    34    15    16    1
    35    21    22   ar
    36    22    23   ar
    37    23    18   ar
    38    15    11   ar
    39    10     1   ar
    40    10     5   ar
    41    32    28    1
    42    38    33    1
    43    26    27    1
@<TRIPOS>MOLECULE
*****
 38 43 0 0 0
SMALL
GASTEIGER

@<TRIPOS>ATOM
      1 C          48.5372   11.3218  -23.8697 C.ar    1  UNL1        0.1097
      2 N          48.5182   10.2163  -23.0838 N.ar    1  UNL1       -0.1677
      3 N          49.3429   10.4222  -22.0634 N.ar    1  UNL1       -0.2319
      4 C          49.5265    9.4931  -20.9567 C.3     1  UNL1        0.1554
      5 C          49.8611   11.6548  -22.1780 C.ar    1  UNL1        0.1654
      6 N          50.6807   12.2822  -21.3004 N.ar    1  UNL1       -0.2050
      7 C          51.0660   13.5619  -21.5817 C.ar    1  UNL1        0.2014
      8 N          50.6364   14.1821  -22.7258 N.ar    1  UNL1       -0.2089
      9 C          49.8093   13.5547  -23.6148 C.ar    1  UNL1        0.1379
     10 C          49.4005   12.2548  -23.3087 C.ar    1  UNL1        0.0865
     11 C          47.9896   11.2442  -26.3643 C.ar    1  UNL1        0.0811
     12 C          47.6652   11.4920  -25.0414 C.ar    1  UNL1        0.0625
     13 C          46.3919   12.0442  -25.0891 C.ar    1  UNL1        0.1789
     14 N          45.9883   12.1306  -26.3728 N.ar    1  UNL1       -0.1626
     15 N          46.9551   11.6447  -27.1360 N.ar    1  UNL1       -0.2486
     16 C          46.8835   11.6210  -28.5929 C.3     1  UNL1        0.1537
     17 C          53.0689    9.3550  -28.3990 C.3     1  UNL1        0.0310
     18 C          51.7560    9.8191  -27.8418 C.ar    1  UNL1       -0.0218
     19 C          51.7088   10.9064  -26.9563 C.ar    1  UNL1       -0.0042
     20 C          50.4820   11.3639  -26.4668 C.ar    1  UNL1        0.0012
     21 C          49.2869   10.7492  -26.8670 C.ar    1  UNL1        0.0174
     22 C          49.3327    9.6718  -27.7641 C.ar    1  UNL1        0.0012
     23 C          50.5592    9.2140  -28.2541 C.ar    1  UNL1       -0.0042
     24 C          45.5502   12.4482  -23.9533 C.2     1  UNL1        0.3578
     25 O          44.5473   13.1848  -24.1502 O.2     1  UNL1       -0.2433
     26 O          45.8443   12.0159  -22.6639 O.3     1  UNL1       -0.4760
     27 H          45.2702   12.2957  -21.8777 H       1  UNL1        0.2955
     28 N          49.4312   14.2119  -24.8285 N.pl3   1  UNL1       -0.2917
     29 C          50.4088   14.6084  -25.8293 C.3     1  UNL1        0.0937
     30 C          49.6903   15.5683  -26.7726 C.3     1  UNL1        0.0391
     31 C          48.2058   15.5265  -26.3664 C.3     1  UNL1        0.0790
     32 C          48.1657   14.9066  -24.9675 C.3     1  UNL1        0.1081
     33 N          47.5011   16.8335  -26.4437 N.3     1  UNL1       -0.2723
     34 C          48.0571   17.7488  -27.4674 C.3     1  UNL1        0.0721
     35 C          49.1561   18.6732  -26.9144 C.3     1  UNL1        0.0174
     36 C          48.8030   19.3011  -25.5527 C.3     1  UNL1        0.0029
     37 C          47.3765   18.9785  -25.1094 C.3     1  UNL1        0.0174
     38 C          47.1370   17.4634  -25.1448 C.3     1  UNL1        0.0721
@<TRIPOS>BOND
     1    17    18    1
     2    18    19   ar
     3    19    20   ar
     4    20    21   ar
     5    21    11    1
     6    11    12   ar
     7    12     1    1
     8     1     2   ar
     9     2     3   ar
    10     3     4    1
    11     3     5   ar
    12     5     6   ar
    13     6     7   ar
    14     7     8   ar
    15     8     9   ar
    16     9    28    1
    17    28    29    1
    18    29    30    1
    19    30    31    1
    20    31    33    1
    21    33    34    1
    22    34    35    1
    23    35    36    1
    24    36    37    1
    25    37    38    1
    26    31    32    1
    27     9    10   ar
    28    12    13   ar
    29    13    24    1
    30    24    25    2
    31    24    26    1
    32    13    14   ar
    33    14    15   ar
    34    15    16    1
    35    21    22   ar
    36    22    23   ar
    37    23    18   ar
    38    15    11   ar
    39    10     1   ar
    40    10     5   ar
    41    32    28    1
    42    38    33    1
    43    26    27    1
