@<TRIPOS>MOLECULE
*****
 28 30 0 0 0
SMALL
GASTEIGER

@<TRIPOS>ATOM
      1 C         -15.2715    1.1187  -12.9693 C.ar    1  UNL1        0.1385
      2 C         -15.7486    0.1645  -13.8894 C.ar    1  UNL1        0.0366
      3 C         -15.1806    0.0674  -15.1631 C.ar    1  UNL1       -0.0011
      4 C         -14.1290    0.9176  -15.5385 C.ar    1  UNL1       -0.0206
      5 C         -13.6498    1.8627  -14.6191 C.ar    1  UNL1       -0.0011
      6 C         -14.2185    1.9601  -13.3463 C.ar    1  UNL1        0.0366
      7 O         -15.8018    1.2613  -11.6762 O.3     1  UNL1       -0.4750
      8 C         -17.1858    1.1838  -11.3341 C.3     1  UNL1        0.2117
      9 C         -17.9641    2.3375  -11.9715 C.3     1  UNL1        0.0932
     10 C         -22.1648    2.0162  -11.1693 C.ar    1  UNL1        0.0308
     11 C         -21.6607    1.5906  -12.4069 C.ar    1  UNL1        0.0015
     12 C         -20.2945    1.6779  -12.6761 C.ar    1  UNL1        0.0147
     13 C         -19.4329    2.1951  -11.7007 C.ar    1  UNL1        0.0658
     14 N         -19.9419    2.6286  -10.5155 N.ar    1  UNL1       -0.2164
     15 C         -21.2697    2.5550  -10.2268 C.ar    1  UNL1        0.2170
     16 O         -21.7322    3.0195   -8.9982 O.3     1  UNL1       -0.4922
     17 H         -21.0936    3.4106   -8.3162 H       1  UNL1        0.2937
     18 C         -24.4211    2.7849  -11.9088 C.3     1  UNL1        0.0052
     19 C         -23.6454    1.9510  -10.8945 C.3     1  UNL1        0.0311
     20 C         -13.5006    0.8017  -16.9044 C.3     1  UNL1        0.0468
     21 C         -14.5318    0.4465  -17.9879 C.3     1  UNL1        0.1369
     22 S         -13.9622   -1.0487  -18.9003 S.3     1  UNL1       -0.0482
     23 C         -13.7737   -0.0794  -20.3874 C.2     1  UNL1        0.2792
     24 O         -13.2601   -0.5449  -21.4376 O.2     1  UNL1       -0.2625
     25 N         -14.2259    1.2554  -20.3055 N.am    1  UNL1       -0.2460
     26 C         -14.6863    1.5458  -19.0001 C.2     1  UNL1        0.2392
     27 O         -15.2152    2.6549  -18.7229 O.2     1  UNL1       -0.2737
     28 H         -14.2274    1.9323  -21.1007 H       1  UNL1        0.1583
@<TRIPOS>BOND
     1    18    19    1
     2    19    10    1
     3    10    11   ar
     4    11    12   ar
     5    12    13   ar
     6    13     9    1
     7     9     8    1
     8     8     7    1
     9     7     1    1
    10     1     2   ar
    11     2     3   ar
    12     3     4   ar
    13     4    20    1
    14    20    21    1
    15    21    22    1
    16    22    23    1
    17    23    24    2
    18    23    25   am
    19    25    26   am
    20    26    27    2
    21     4     5   ar
    22     5     6   ar
    23    13    14   ar
    24    14    15   ar
    25    15    16    1
    26    15    10   ar
    27     6     1   ar
    28    26    21    1
    29    25    28    1
    30    16    17    1
@<TRIPOS>MOLECULE
*****
 28 30 0 0 0
SMALL
GASTEIGER

@<TRIPOS>ATOM
      1 C         -25.4854  -13.2779  -14.4079 C.ar    1  UNL1        0.1385
      2 C         -25.6862  -11.9948  -14.9541 C.ar    1  UNL1        0.0366
      3 C         -25.3756  -10.8542  -14.2078 C.ar    1  UNL1       -0.0011
      4 C         -24.8596  -10.9744  -12.9083 C.ar    1  UNL1       -0.0206
      5 C         -24.6533  -12.2525  -12.3679 C.ar    1  UNL1       -0.0011
      6 C         -24.9648  -13.3924  -13.1137 C.ar    1  UNL1        0.0366
      7 O         -25.7776  -14.4588  -15.1105 O.3     1  UNL1       -0.4750
      8 C         -24.9935  -15.0100  -16.1687 C.3     1  UNL1        0.2117
      9 C         -23.5108  -15.0270  -15.7886 C.3     1  UNL1        0.0932
     10 C         -21.9025  -11.0685  -16.1573 C.ar    1  UNL1        0.0308
     11 C         -21.4759  -11.8953  -15.1078 C.ar    1  UNL1        0.0015
     12 C         -21.9817  -13.1896  -14.9836 C.ar    1  UNL1        0.0147
     13 C         -22.9190  -13.6541  -15.9147 C.ar    1  UNL1        0.0658
     14 N         -23.3425  -12.8297  -16.9110 N.ar    1  UNL1       -0.2164
     15 C         -22.8658  -11.5633  -17.0556 C.ar    1  UNL1        0.2170
     16 O         -23.3411  -10.7648  -18.0926 O.3     1  UNL1       -0.4922
     17 H         -24.0363  -11.1140  -18.7413 H       1  UNL1        0.2937
     18 C         -22.2205   -8.7015  -15.4327 C.3     1  UNL1        0.0052
     19 C         -21.3786   -9.6595  -16.2691 C.3     1  UNL1        0.0311
     20 C         -24.5045   -9.7462  -12.1084 C.3     1  UNL1        0.0468
     21 C         -23.4540  -10.0440  -11.0262 C.3     1  UNL1        0.1369
     22 S         -24.2332   -9.8858   -9.3648 S.3     1  UNL1       -0.0482
     23 C         -23.1905   -8.4836   -9.0002 C.2     1  UNL1        0.2792
     24 O         -23.3293   -7.7897   -7.9597 O.2     1  UNL1       -0.2625
     25 N         -22.2039   -8.1910   -9.9666 N.am    1  UNL1       -0.2460
     26 C         -22.3103   -9.0708  -11.0689 C.2     1  UNL1        0.2392
     27 O         -21.4745   -9.0459  -12.0109 O.2     1  UNL1       -0.2737
     28 H         -21.4895   -7.4346   -9.8766 H       1  UNL1        0.1583
@<TRIPOS>BOND
     1    18    19    1
     2    19    10    1
     3    10    11   ar
     4    11    12   ar
     5    12    13   ar
     6    13     9    1
     7     9     8    1
     8     8     7    1
     9     7     1    1
    10     1     2   ar
    11     2     3   ar
    12     3     4   ar
    13     4    20    1
    14    20    21    1
    15    21    22    1
    16    22    23    1
    17    23    24    2
    18    23    25   am
    19    25    26   am
    20    26    27    2
    21     4     5   ar
    22     5     6   ar
    23    13    14   ar
    24    14    15   ar
    25    15    16    1
    26    15    10   ar
    27     6     1   ar
    28    26    21    1
    29    25    28    1
    30    16    17    1
@<TRIPOS>MOLECULE
*****
 28 30 0 0 0
SMALL
GASTEIGER

@<TRIPOS>ATOM
      1 C         -25.2733  -13.1352  -14.1495 C.ar    1  UNL1        0.1385
      2 C         -24.6947  -12.8827  -12.8900 C.ar    1  UNL1        0.0366
      3 C         -24.5880  -11.5731  -12.4126 C.ar    1  UNL1       -0.0011
      4 C         -25.0569  -10.4966  -13.1812 C.ar    1  UNL1       -0.0206
      5 C         -25.6394  -10.7495  -14.4321 C.ar    1  UNL1       -0.0011
      6 C         -25.7449  -12.0586  -14.9095 C.ar    1  UNL1        0.0366
      7 O         -25.4083  -14.4290  -14.6800 O.3     1  UNL1       -0.4750
      8 C         -24.7811  -14.9072  -15.8701 C.3     1  UNL1        0.2117
      9 C         -23.2572  -14.8635  -15.7312 C.3     1  UNL1        0.0932
     10 C         -21.9053  -10.8181  -16.1782 C.ar    1  UNL1        0.0308
     11 C         -21.3960  -11.6084  -15.1376 C.ar    1  UNL1        0.0015
     12 C         -21.8179  -12.9298  -14.9884 C.ar    1  UNL1        0.0147
     13 C         -22.7544  -13.4584  -15.8856 C.ar    1  UNL1        0.0658
     14 N         -23.2588  -12.6698  -16.8732 N.ar    1  UNL1       -0.2164
     15 C         -22.8649  -11.3781  -17.0415 C.ar    1  UNL1        0.2170
     16 O         -23.4208  -10.6189  -18.0679 O.3     1  UNL1       -0.4922
     17 H         -24.1137  -11.0151  -18.6914 H       1  UNL1        0.2937
     18 C         -22.3537   -8.4667  -15.4721 C.3     1  UNL1        0.0052
     19 C         -21.4721   -9.3810  -16.3163 C.3     1  UNL1        0.0311
     20 C         -24.9618   -9.0846  -12.6602 C.3     1  UNL1        0.0468
     21 C         -26.3224   -8.3690  -12.6756 C.3     1  UNL1        0.1369
     22 S         -26.1901   -6.8362  -13.6884 S.3     1  UNL1       -0.0482
     23 C         -26.4713   -5.8409  -12.2335 C.2     1  UNL1        0.2792
     24 O         -26.3798   -4.5859  -12.2444 O.2     1  UNL1       -0.2625
     25 N         -26.7898   -6.5562  -11.0588 N.am    1  UNL1       -0.2460
     26 C         -26.7535   -7.9495  -11.2990 C.2     1  UNL1        0.2392
     27 O         -27.0894   -8.7770  -10.4108 O.2     1  UNL1       -0.2737
     28 H         -27.0270   -6.1171  -10.1415 H       1  UNL1        0.1583
@<TRIPOS>BOND
     1    18    19    1
     2    19    10    1
     3    10    11   ar
     4    11    12   ar
     5    12    13   ar
     6    13     9    1
     7     9     8    1
     8     8     7    1
     9     7     1    1
    10     1     2   ar
    11     2     3   ar
    12     3     4   ar
    13     4    20    1
    14    20    21    1
    15    21    22    1
    16    22    23    1
    17    23    24    2
    18    23    25   am
    19    25    26   am
    20    26    27    2
    21     4     5   ar
    22     5     6   ar
    23    13    14   ar
    24    14    15   ar
    25    15    16    1
    26    15    10   ar
    27     6     1   ar
    28    26    21    1
    29    25    28    1
    30    16    17    1
@<TRIPOS>MOLECULE
*****
 28 30 0 0 0
SMALL
GASTEIGER

@<TRIPOS>ATOM
      1 C         -25.1293  -11.9165  -13.7233 C.ar    1  UNL1        0.1385
      2 C         -24.4080  -11.9670  -12.5142 C.ar    1  UNL1        0.0366
      3 C         -24.0285  -10.7859  -11.8696 C.ar    1  UNL1       -0.0011
      4 C         -24.3627   -9.5383  -12.4183 C.ar    1  UNL1       -0.0206
      5 C         -25.0872   -9.4890  -13.6187 C.ar    1  UNL1       -0.0011
      6 C         -25.4655  -10.6698  -14.2633 C.ar    1  UNL1        0.0366
      7 O         -25.5384  -13.0690  -14.4146 O.3     1  UNL1       -0.4750
      8 C         -24.8265  -14.3058  -14.4597 C.3     1  UNL1        0.2117
      9 C         -23.9290  -14.3663  -15.6984 C.3     1  UNL1        0.0932
     10 C         -22.0389  -10.5662  -16.3142 C.ar    1  UNL1        0.0308
     11 C         -21.5693  -11.4186  -15.3043 C.ar    1  UNL1        0.0015
     12 C         -22.1671  -12.6628  -15.1016 C.ar    1  UNL1        0.0147
     13 C         -23.2396  -13.0513  -15.9140 C.ar    1  UNL1        0.0658
     14 N         -23.7003  -12.2010  -16.8714 N.ar    1  UNL1       -0.2164
     15 C         -23.1361  -10.9822  -17.0906 C.ar    1  UNL1        0.2170
     16 O         -23.6549  -10.1536  -18.0821 O.3     1  UNL1       -0.4922
     17 H         -24.4461  -10.4460  -18.6429 H       1  UNL1        0.2937
     18 C         -22.2971   -8.1153  -15.9203 C.3     1  UNL1        0.0052
     19 C         -21.4121   -9.2092  -16.5087 C.3     1  UNL1        0.0311
     20 C         -23.9726   -8.2627  -11.7149 C.3     1  UNL1        0.0468
     21 C         -22.5683   -8.3495  -11.0952 C.3     1  UNL1        0.1369
     22 S         -22.6809   -8.0111   -9.2881 S.3     1  UNL1       -0.0482
     23 C         -21.7309   -6.5150   -9.5008 C.2     1  UNL1        0.2792
     24 O         -21.5421   -5.6948   -8.5653 O.2     1  UNL1       -0.2625
     25 N         -21.2144   -6.3009  -10.7971 N.am    1  UNL1       -0.2460
     26 C         -21.6327   -7.3274  -11.6755 C.2     1  UNL1        0.2392
     27 O         -21.2179   -7.3834  -12.8635 O.2     1  UNL1       -0.2737
     28 H         -20.6018   -5.4997  -11.0680 H       1  UNL1        0.1583
@<TRIPOS>BOND
     1    18    19    1
     2    19    10    1
     3    10    11   ar
     4    11    12   ar
     5    12    13   ar
     6    13     9    1
     7     9     8    1
     8     8     7    1
     9     7     1    1
    10     1     2   ar
    11     2     3   ar
    12     3     4   ar
    13     4    20    1
    14    20    21    1
    15    21    22    1
    16    22    23    1
    17    23    24    2
    18    23    25   am
    19    25    26   am
    20    26    27    2
    21     4     5   ar
    22     5     6   ar
    23    13    14   ar
    24    14    15   ar
    25    15    16    1
    26    15    10   ar
    27     6     1   ar
    28    26    21    1
    29    25    28    1
    30    16    17    1
@<TRIPOS>MOLECULE
*****
 28 30 0 0 0
SMALL
GASTEIGER

@<TRIPOS>ATOM
      1 C         -21.5040   -7.4497  -12.2172 C.ar    1  UNL1        0.1385
      2 C         -22.3333   -7.9043  -13.2614 C.ar    1  UNL1        0.0366
      3 C         -23.6341   -7.4099  -13.3952 C.ar    1  UNL1       -0.0011
      4 C         -24.1273   -6.4551  -12.4927 C.ar    1  UNL1       -0.0206
      5 C         -23.2984   -5.9976  -11.4575 C.ar    1  UNL1       -0.0011
      6 C         -21.9985   -6.4928  -11.3234 C.ar    1  UNL1        0.0366
      7 O         -20.1891   -7.9090  -12.0340 O.3     1  UNL1       -0.4750
      8 C         -19.6923   -8.5564  -10.8625 C.3     1  UNL1        0.2117
      9 C         -20.2848   -9.9617  -10.7308 C.3     1  UNL1        0.0932
     10 C         -24.3665   -9.6681   -9.4481 C.ar    1  UNL1        0.0308
     11 C         -24.0521  -10.4102  -10.5958 C.ar    1  UNL1        0.0015
     12 C         -22.7269  -10.5242  -11.0169 C.ar    1  UNL1        0.0147
     13 C         -21.7154   -9.8904  -10.2846 C.ar    1  UNL1        0.0658
     14 N         -22.0406   -9.1518   -9.1889 N.ar    1  UNL1       -0.2164
     15 C         -23.3244   -9.0240   -8.7560 C.ar    1  UNL1        0.2170
     16 O         -23.5958   -8.2504   -7.6305 O.3     1  UNL1       -0.4922
     17 H         -22.8506   -7.7822   -7.1291 H       1  UNL1        0.2937
     18 C         -26.5279   -8.4994   -9.8862 C.3     1  UNL1        0.0052
     19 C         -25.8027   -9.5197   -9.0149 C.3     1  UNL1        0.0311
     20 C         -25.5229   -5.9047  -12.6464 C.3     1  UNL1        0.0468
     21 C         -26.1906   -6.3753  -13.9488 C.3     1  UNL1        0.1369
     22 S         -26.7341   -4.9057  -14.9171 S.3     1  UNL1       -0.0482
     23 C         -28.4405   -5.3799  -14.6943 C.2     1  UNL1        0.2792
     24 O         -29.3985   -4.6509  -15.0607 O.2     1  UNL1       -0.2625
     25 N         -28.6489   -6.6254  -14.0633 N.am    1  UNL1       -0.2460
     26 C         -27.4151   -7.2048  -13.6858 C.2     1  UNL1        0.2392
     27 O         -27.3590   -8.3586  -13.1834 O.2     1  UNL1       -0.2737
     28 H         -29.5841   -7.0620  -13.9042 H       1  UNL1        0.1583
@<TRIPOS>BOND
     1    18    19    1
     2    19    10    1
     3    10    11   ar
     4    11    12   ar
     5    12    13   ar
     6    13     9    1
     7     9     8    1
     8     8     7    1
     9     7     1    1
    10     1     2   ar
    11     2     3   ar
    12     3     4   ar
    13     4    20    1
    14    20    21    1
    15    21    22    1
    16    22    23    1
    17    23    24    2
    18    23    25   am
    19    25    26   am
    20    26    27    2
    21     4     5   ar
    22     5     6   ar
    23    13    14   ar
    24    14    15   ar
    25    15    16    1
    26    15    10   ar
    27     6     1   ar
    28    26    21    1
    29    25    28    1
    30    16    17    1
@<TRIPOS>MOLECULE
*****
 28 30 0 0 0
SMALL
GASTEIGER

@<TRIPOS>ATOM
      1 C         -24.9079  -12.3967  -14.1150 C.ar    1  UNL1        0.1385
      2 C         -25.4928  -11.2297  -14.6448 C.ar    1  UNL1        0.0366
      3 C         -25.4729  -10.0372  -13.9155 C.ar    1  UNL1       -0.0011
      4 C         -24.8694   -9.9890  -12.6494 C.ar    1  UNL1       -0.0206
      5 C         -24.2809  -11.1498  -12.1257 C.ar    1  UNL1       -0.0011
      6 C         -24.3019  -12.3419  -12.8545 C.ar    1  UNL1        0.0366
      7 O         -24.8963  -13.6221  -14.8019 O.3     1  UNL1       -0.4750
      8 C         -23.8195  -14.5596  -14.8079 C.3     1  UNL1        0.2117
      9 C         -22.8620  -14.2733  -15.9675 C.3     1  UNL1        0.0932
     10 C         -22.1871  -10.0505  -16.2915 C.ar    1  UNL1        0.0308
     11 C         -21.5652  -10.7753  -15.2645 C.ar    1  UNL1        0.0015
     12 C         -21.7663  -12.1515  -15.1552 C.ar    1  UNL1        0.0147
     13 C         -22.5948  -12.8012  -16.0787 C.ar    1  UNL1        0.0658
     14 N         -23.2121  -12.0787  -17.0527 N.ar    1  UNL1       -0.2164
     15 C         -23.0337  -10.7359  -17.1823 C.ar    1  UNL1        0.2170
     16 O         -23.6965  -10.0497  -18.1966 O.3     1  UNL1       -0.4922
     17 H         -24.3091  -10.5366  -18.8397 H       1  UNL1        0.2937
     18 C         -20.5134   -8.2112  -16.5021 C.3     1  UNL1        0.0052
     19 C         -21.9940   -8.5586  -16.3867 C.3     1  UNL1        0.0311
     20 C         -24.8283   -8.6992  -11.8690 C.3     1  UNL1        0.0468
     21 C         -24.2696   -7.5352  -12.7035 C.3     1  UNL1        0.1369
     22 S         -22.5106   -7.2462  -12.2400 S.3     1  UNL1       -0.0482
     23 C         -22.9395   -5.6448  -11.5784 C.2     1  UNL1        0.2792
     24 O         -22.1151   -4.9280  -10.9538 O.2     1  UNL1       -0.2625
     25 N         -24.2747   -5.2372  -11.7881 N.am    1  UNL1       -0.2460
     26 C         -25.0078   -6.2524  -12.4455 C.2     1  UNL1        0.2392
     27 O         -26.1996   -6.0695  -12.8099 O.2     1  UNL1       -0.2737
     28 H         -24.6651   -4.3112  -11.5040 H       1  UNL1        0.1583
@<TRIPOS>BOND
     1    18    19    1
     2    19    10    1
     3    10    11   ar
     4    11    12   ar
     5    12    13   ar
     6    13     9    1
     7     9     8    1
     8     8     7    1
     9     7     1    1
    10     1     2   ar
    11     2     3   ar
    12     3     4   ar
    13     4    20    1
    14    20    21    1
    15    21    22    1
    16    22    23    1
    17    23    24    2
    18    23    25   am
    19    25    26   am
    20    26    27    2
    21     4     5   ar
    22     5     6   ar
    23    13    14   ar
    24    14    15   ar
    25    15    16    1
    26    15    10   ar
    27     6     1   ar
    28    26    21    1
    29    25    28    1
    30    16    17    1
@<TRIPOS>MOLECULE
*****
 28 30 0 0 0
SMALL
GASTEIGER

@<TRIPOS>ATOM
      1 C         -27.1221   -7.0694  -13.9231 C.ar    1  UNL1        0.1385
      2 C         -28.5071   -6.9219  -14.1350 C.ar    1  UNL1        0.0366
      3 C         -29.0116   -5.7534  -14.7133 C.ar    1  UNL1       -0.0011
      4 C         -28.1449   -4.7160  -15.0902 C.ar    1  UNL1       -0.0206
      5 C         -26.7652   -4.8667  -14.8854 C.ar    1  UNL1       -0.0011
      6 C         -26.2613   -6.0344  -14.3063 C.ar    1  UNL1        0.0366
      7 O         -26.5580   -8.2203  -13.3479 O.3     1  UNL1       -0.4750
      8 C         -25.1880   -8.6101  -13.4456 C.3     1  UNL1        0.2117
      9 C         -24.9150   -9.8420  -12.5789 C.3     1  UNL1        0.0932
     10 C         -24.9005  -13.3768  -15.0073 C.ar    1  UNL1        0.0308
     11 C         -25.0404  -13.4916  -13.6166 C.ar    1  UNL1        0.0015
     12 C         -25.0593  -12.3490  -12.8162 C.ar    1  UNL1        0.0147
     13 C         -24.9361  -11.0885  -13.4137 C.ar    1  UNL1        0.0658
     14 N         -24.7741  -10.9962  -14.7616 N.ar    1  UNL1       -0.2164
     15 C         -24.7522  -12.0938  -15.5657 C.ar    1  UNL1        0.2170
     16 O         -24.5781  -11.9363  -16.9382 O.3     1  UNL1       -0.4922
     17 H         -24.4684  -11.0158  -17.3464 H       1  UNL1        0.2937
     18 C         -23.5100  -15.3294  -15.7020 C.3     1  UNL1        0.0052
     19 C         -24.8474  -14.6149  -15.8655 C.3     1  UNL1        0.0311
     20 C         -28.6840   -3.4628  -15.7330 C.3     1  UNL1        0.0468
     21 C         -29.2095   -3.7213  -17.1544 C.3     1  UNL1        0.1369
     22 S         -27.8172   -3.5759  -18.3515 S.3     1  UNL1       -0.0482
     23 C         -28.5855   -2.1402  -19.0830 C.2     1  UNL1        0.2792
     24 O         -28.0174   -1.4440  -19.9639 O.2     1  UNL1       -0.2625
     25 N         -29.8725   -1.8242  -18.5967 N.am    1  UNL1       -0.2460
     26 C         -30.2465   -2.7141  -17.5630 C.2     1  UNL1        0.2392
     27 O         -31.3927   -2.6700  -17.0425 O.2     1  UNL1       -0.2737
     28 H         -30.4690   -1.0459  -18.9558 H       1  UNL1        0.1583
@<TRIPOS>BOND
     1    18    19    1
     2    19    10    1
     3    10    11   ar
     4    11    12   ar
     5    12    13   ar
     6    13     9    1
     7     9     8    1
     8     8     7    1
     9     7     1    1
    10     1     2   ar
    11     2     3   ar
    12     3     4   ar
    13     4    20    1
    14    20    21    1
    15    21    22    1
    16    22    23    1
    17    23    24    2
    18    23    25   am
    19    25    26   am
    20    26    27    2
    21     4     5   ar
    22     5     6   ar
    23    13    14   ar
    24    14    15   ar
    25    15    16    1
    26    15    10   ar
    27     6     1   ar
    28    26    21    1
    29    25    28    1
    30    16    17    1
@<TRIPOS>MOLECULE
*****
 28 30 0 0 0
SMALL
GASTEIGER

@<TRIPOS>ATOM
      1 C         -22.2496  -10.0673  -10.4165 C.ar    1  UNL1        0.1385
      2 C         -23.5130  -10.2566  -11.0105 C.ar    1  UNL1        0.0366
      3 C         -23.6481  -11.0769  -12.1344 C.ar    1  UNL1       -0.0011
      4 C         -22.5282  -11.7215  -12.6821 C.ar    1  UNL1       -0.0206
      5 C         -21.2718  -11.5381  -12.0857 C.ar    1  UNL1       -0.0011
      6 C         -21.1368  -10.7173  -10.9628 C.ar    1  UNL1        0.0366
      7 O         -22.0533   -9.2565   -9.2862 O.3     1  UNL1       -0.4750
      8 C         -21.1948   -8.1176   -9.2214 C.3     1  UNL1        0.2117
      9 C         -21.8071   -6.9371   -9.9795 C.3     1  UNL1        0.0932
     10 C         -22.2113   -7.7758  -14.1659 C.ar    1  UNL1        0.0308
     11 C         -20.9408   -7.8034  -13.5727 C.ar    1  UNL1        0.0015
     12 C         -20.7967   -7.5448  -12.2093 C.ar    1  UNL1        0.0147
     13 C         -21.9309   -7.2565  -11.4402 C.ar    1  UNL1        0.0658
     14 N         -23.1530   -7.2071  -12.0367 N.ar    1  UNL1       -0.2164
     15 C         -23.3222   -7.4552  -13.3640 C.ar    1  UNL1        0.2170
     16 O         -24.5974   -7.3848  -13.9187 O.3     1  UNL1       -0.4922
     17 H         -25.4010   -7.1522  -13.3476 H       1  UNL1        0.2937
     18 C         -20.9972   -8.2387  -16.2967 C.3     1  UNL1        0.0052
     19 C         -22.3593   -8.0232  -15.6454 C.3     1  UNL1        0.0311
     20 C         -22.6740  -12.6232  -13.8820 C.3     1  UNL1        0.0468
     21 C         -24.1025  -12.6044  -14.4502 C.3     1  UNL1        0.1369
     22 S         -24.8527  -14.2758  -14.2605 S.3     1  UNL1       -0.0482
     23 C         -24.9002  -14.4648  -16.0348 C.2     1  UNL1        0.2792
     24 O         -25.2346  -15.5426  -16.5916 O.2     1  UNL1       -0.2625
     25 N         -24.5217  -13.3263  -16.7787 N.am    1  UNL1       -0.2460
     26 C         -24.1207  -12.2791  -15.9167 C.2     1  UNL1        0.2392
     27 O         -23.8238  -11.1394  -16.3635 O.2     1  UNL1       -0.2737
     28 H         -24.5423  -13.2634  -17.8209 H       1  UNL1        0.1583
@<TRIPOS>BOND
     1    18    19    1
     2    19    10    1
     3    10    11   ar
     4    11    12   ar
     5    12    13   ar
     6    13     9    1
     7     9     8    1
     8     8     7    1
     9     7     1    1
    10     1     2   ar
    11     2     3   ar
    12     3     4   ar
    13     4    20    1
    14    20    21    1
    15    21    22    1
    16    22    23    1
    17    23    24    2
    18    23    25   am
    19    25    26   am
    20    26    27    2
    21     4     5   ar
    22     5     6   ar
    23    13    14   ar
    24    14    15   ar
    25    15    16    1
    26    15    10   ar
    27     6     1   ar
    28    26    21    1
    29    25    28    1
    30    16    17    1
@<TRIPOS>MOLECULE
*****
 28 30 0 0 0
SMALL
GASTEIGER

@<TRIPOS>ATOM
      1 C         -23.4280  -12.0671  -12.8278 C.ar    1  UNL1        0.1385
      2 C         -24.1243  -11.1378  -12.0300 C.ar    1  UNL1        0.0366
      3 C         -23.4391  -10.0914  -11.4055 C.ar    1  UNL1       -0.0011
      4 C         -22.0519   -9.9543  -11.5673 C.ar    1  UNL1       -0.0206
      5 C         -21.3605  -10.8760  -12.3677 C.ar    1  UNL1       -0.0011
      6 C         -22.0455  -11.9224  -12.9910 C.ar    1  UNL1        0.0366
      7 O         -24.0629  -13.1370  -13.4804 O.3     1  UNL1       -0.4750
      8 C         -25.2601  -13.0447  -14.2528 C.3     1  UNL1        0.2117
      9 C         -24.9323  -12.8025  -15.7283 C.3     1  UNL1        0.0932
     10 C         -22.5709   -9.2411  -16.0929 C.ar    1  UNL1        0.0308
     11 C         -22.1909  -10.3991  -16.7868 C.ar    1  UNL1        0.0015
     12 C         -22.9571  -11.5607  -16.6869 C.ar    1  UNL1        0.0147
     13 C         -24.1068  -11.5598  -15.8873 C.ar    1  UNL1        0.0658
     14 N         -24.4464  -10.4359  -15.1993 N.ar    1  UNL1       -0.2164
     15 C         -23.7174   -9.2896  -15.2786 C.ar    1  UNL1        0.2170
     16 O         -24.1122   -8.1726  -14.5469 O.3     1  UNL1       -0.4922
     17 H         -24.9351   -8.2015  -13.9570 H       1  UNL1        0.2937
     18 C         -20.2617   -8.3560  -16.4292 C.3     1  UNL1        0.0052
     19 C         -21.7226   -7.9980  -16.1770 C.3     1  UNL1        0.0311
     20 C         -21.3130   -8.8149  -10.9116 C.3     1  UNL1        0.0468
     21 C         -22.2464   -7.6441  -10.5630 C.3     1  UNL1        0.1369
     22 S         -21.6250   -6.1111  -11.3732 S.3     1  UNL1       -0.0482
     23 C         -21.2801   -5.3962   -9.7744 C.2     1  UNL1        0.2792
     24 O         -20.6809   -4.2978   -9.6396 O.2     1  UNL1       -0.2625
     25 N         -21.7110   -6.1529   -8.6633 N.am    1  UNL1       -0.2460
     26 C         -22.2844   -7.3750   -9.0855 C.2     1  UNL1        0.2392
     27 O         -22.8142   -8.1692   -8.2638 O.2     1  UNL1       -0.2737
     28 H         -21.6252   -5.8491   -7.6679 H       1  UNL1        0.1583
@<TRIPOS>BOND
     1    18    19    1
     2    19    10    1
     3    10    11   ar
     4    11    12   ar
     5    12    13   ar
     6    13     9    1
     7     9     8    1
     8     8     7    1
     9     7     1    1
    10     1     2   ar
    11     2     3   ar
    12     3     4   ar
    13     4    20    1
    14    20    21    1
    15    21    22    1
    16    22    23    1
    17    23    24    2
    18    23    25   am
    19    25    26   am
    20    26    27    2
    21     4     5   ar
    22     5     6   ar
    23    13    14   ar
    24    14    15   ar
    25    15    16    1
    26    15    10   ar
    27     6     1   ar
    28    26    21    1
    29    25    28    1
    30    16    17    1
