@<TRIPOS>MOLECULE
*****
 46 51 0 0 0
SMALL
GASTEIGER

@<TRIPOS>ATOM
      1 C         -64.1172  -52.1673  -24.2710 C.ar    1  UNL1        0.0702
      2 C         -63.5086  -52.7538  -23.1559 C.ar    1  UNL1        0.0191
      3 C         -64.1830  -53.7253  -22.4150 C.ar    1  UNL1        0.0356
      4 C         -65.4853  -54.1015  -22.7865 C.ar    1  UNL1        0.1318
      5 N         -66.0698  -53.4897  -23.8548 N.ar    1  UNL1       -0.2279
      6 C         -65.4303  -52.5444  -24.5929 C.ar    1  UNL1        0.1149
      7 N         -66.2189  -55.0998  -22.0448 N.pl3   1  UNL1       -0.2932
      8 C         -66.8381  -54.7738  -20.7485 C.3     1  UNL1        0.0923
      9 C         -66.9529  -56.0221  -19.8654 C.3     1  UNL1        0.0252
     10 C         -67.7141  -57.1821  -20.5599 C.3     1  UNL1        0.0472
     11 C         -67.5999  -57.1373  -22.1029 C.3     1  UNL1        0.0252
     12 C         -66.3006  -56.4733  -22.5649 C.3     1  UNL1        0.0923
     13 C         -69.1980  -57.2161  -20.1385 C.3     1  UNL1        0.2054
     14 O         -69.7361  -55.8972  -20.0250 O.3     1  UNL1       -0.4755
     15 C         -70.4037  -55.3783  -18.9030 C.ar    1  UNL1        0.1388
     16 C         -70.1103  -55.9306  -17.6520 C.ar    1  UNL1        0.0369
     17 C         -70.7362  -55.4509  -16.5008 C.ar    1  UNL1        0.0033
     18 C         -71.6677  -54.4150  -16.5886 C.ar    1  UNL1        0.0066
     19 C         -71.9880  -53.8486  -17.8347 C.ar    1  UNL1        0.0785
     20 C         -71.3399  -54.3275  -18.9888 C.ar    1  UNL1        0.0433
     21 C         -72.9795  -52.7483  -17.9136 C.2     1  UNL1        0.3381
     22 O         -72.9098  -51.9104  -18.8518 O.2     1  UNL1       -0.2451
     23 O         -73.9880  -52.5995  -16.9621 O.3     1  UNL1       -0.4771
     24 H         -74.0380  -53.1688  -16.1270 H       1  UNL1        0.2954
     25 C         -63.8287  -49.7736  -25.0707 C.2     1  UNL1        0.2839
     26 O         -64.8153  -49.3701  -24.3991 O.2     1  UNL1       -0.2665
     27 N         -63.4174  -51.1506  -25.0073 N.am    1  UNL1       -0.2766
     28 H         -62.5932  -51.4551  -25.5696 H       1  UNL1        0.1553
     29 C         -60.9913  -45.9261  -28.7125 C.ar    1  UNL1        0.0002
     30 C         -60.4508  -45.5287  -27.4593 C.ar    1  UNL1        0.0031
     31 C         -60.8407  -46.1696  -26.2702 C.ar    1  UNL1        0.0375
     32 C         -61.7679  -47.2020  -26.3591 C.ar    1  UNL1        0.1452
     33 O         -62.2578  -47.9205  -25.3784 O.2     1  UNL1       -0.4492
     34 C         -63.0992  -48.7971  -25.8980 C.ar    1  UNL1        0.1946
     35 C         -63.1776  -48.6210  -27.2853 C.ar    1  UNL1        0.0202
     36 C         -64.0468  -49.3395  -28.2723 C.3     1  UNL1        0.0345
     37 C         -62.2960  -47.5947  -27.5586 C.ar    1  UNL1        0.0337
     38 C         -61.9343  -46.9809  -28.7577 C.ar    1  UNL1        0.0028
     39 C         -59.7732  -43.9373  -32.3324 C.ar    1  UNL1       -0.0222
     40 C         -58.8527  -44.7003  -31.5989 C.ar    1  UNL1       -0.0043
     41 C         -59.2464  -45.3427  -30.4217 C.ar    1  UNL1       -0.0003
     42 C         -60.5720  -45.2420  -29.9620 C.ar    1  UNL1       -0.0000
     43 C         -61.4948  -44.4872  -30.7085 C.ar    1  UNL1       -0.0003
     44 C         -61.0993  -43.8445  -31.8850 C.ar    1  UNL1       -0.0043
     45 C         -60.3848  -43.5277  -34.7146 C.3     1  UNL1        0.0050
     46 C         -59.3566  -43.2733  -33.6174 C.3     1  UNL1        0.0264
@<TRIPOS>BOND
     1    45    46    1
     2    46    39    1
     3    39    40   ar
     4    40    41   ar
     5    41    42   ar
     6    42    29    1
     7    29    30   ar
     8    30    31   ar
     9    31    32   ar
    10    32    33   ar
    11    33    34   ar
    12    34    25    1
    13    25    26    2
    14    25    27   am
    15    27     1    1
    16     1     2   ar
    17     2     3   ar
    18     3     4   ar
    19     4     7    1
    20     7     8    1
    21     8     9    1
    22     9    10    1
    23    10    13    1
    24    13    14    1
    25    14    15    1
    26    15    16   ar
    27    16    17   ar
    28    17    18   ar
    29    18    19   ar
    30    19    21    1
    31    21    22    2
    32    21    23    1
    33    19    20   ar
    34    10    11    1
    35    11    12    1
    36     4     5   ar
    37     5     6   ar
    38    34    35   ar
    39    35    36    1
    40    35    37   ar
    41    37    38   ar
    42    42    43   ar
    43    43    44   ar
    44    44    39   ar
    45    38    29   ar
    46    37    32   ar
    47     6     1   ar
    48    12     7    1
    49    20    15   ar
    50    27    28    1
    51    23    24    1
@<TRIPOS>MOLECULE
*****
 46 51 0 0 0
SMALL
GASTEIGER

@<TRIPOS>ATOM
      1 C         -64.1214  -52.2206  -24.3116 C.ar    1  UNL1        0.0702
      2 C         -63.5793  -52.7107  -23.1185 C.ar    1  UNL1        0.0191
      3 C         -64.2607  -53.6799  -22.3811 C.ar    1  UNL1        0.0356
      4 C         -65.5041  -54.1513  -22.8363 C.ar    1  UNL1        0.1318
      5 N         -66.0277  -53.6320  -23.9823 N.ar    1  UNL1       -0.2279
      6 C         -65.3797  -52.6908  -24.7183 C.ar    1  UNL1        0.1149
      7 N         -66.2431  -55.1506  -22.1015 N.pl3   1  UNL1       -0.2932
      8 C         -66.7655  -54.8647  -20.7541 C.3     1  UNL1        0.0923
      9 C         -66.8921  -56.1514  -19.9297 C.3     1  UNL1        0.0252
     10 C         -67.7533  -57.2337  -20.6328 C.3     1  UNL1        0.0472
     11 C         -67.7298  -57.1118  -22.1758 C.3     1  UNL1        0.0252
     12 C         -66.4277  -56.4886  -22.6842 C.3     1  UNL1        0.0923
     13 C         -69.2089  -57.2173  -20.1215 C.3     1  UNL1        0.2054
     14 O         -69.5448  -55.9511  -19.5505 O.3     1  UNL1       -0.4755
     15 C         -70.0905  -55.7476  -18.2721 C.ar    1  UNL1        0.1388
     16 C         -71.3739  -55.1983  -18.1868 C.ar    1  UNL1        0.0369
     17 C         -71.9708  -54.9805  -16.9444 C.ar    1  UNL1        0.0033
     18 C         -71.2876  -55.3056  -15.7714 C.ar    1  UNL1        0.0066
     19 C         -69.9929  -55.8500  -15.8284 C.ar    1  UNL1        0.0785
     20 C         -69.4048  -56.0815  -17.0862 C.ar    1  UNL1        0.0433
     21 C         -69.2784  -56.1910  -14.5742 C.2     1  UNL1        0.3381
     22 O         -69.6891  -57.1445  -13.8605 O.2     1  UNL1       -0.2451
     23 O         -68.1637  -55.4711  -14.1456 O.3     1  UNL1       -0.4771
     24 H         -67.8457  -54.6306  -14.6106 H       1  UNL1        0.2954
     25 C         -63.8128  -49.8221  -25.0893 C.2     1  UNL1        0.2839
     26 O         -64.7871  -49.4139  -24.4026 O.2     1  UNL1       -0.2665
     27 N         -63.4175  -51.2045  -25.0450 N.am    1  UNL1       -0.2766
     28 H         -62.6032  -51.5128  -25.6196 H       1  UNL1        0.1553
     29 C         -60.9737  -45.9665  -28.7213 C.ar    1  UNL1        0.0002
     30 C         -60.3971  -45.6050  -27.4734 C.ar    1  UNL1        0.0031
     31 C         -60.7743  -46.2603  -26.2880 C.ar    1  UNL1        0.0375
     32 C         -61.7255  -47.2707  -26.3753 C.ar    1  UNL1        0.1452
     33 O         -62.2091  -47.9974  -25.3975 O.2     1  UNL1       -0.4492
     34 C         -63.0808  -48.8455  -25.9144 C.ar    1  UNL1        0.1946
     35 C         -63.1861  -48.6410  -27.2959 C.ar    1  UNL1        0.0202
     36 C         -64.0924  -49.3216  -28.2764 C.3     1  UNL1        0.0345
     37 C         -62.2886  -47.6288  -27.5698 C.ar    1  UNL1        0.0337
     38 C         -61.9404  -46.9998  -28.7650 C.ar    1  UNL1        0.0028
     39 C         -59.7978  -43.9445  -32.3367 C.ar    1  UNL1       -0.0222
     40 C         -61.1079  -43.8223  -31.8505 C.ar    1  UNL1       -0.0043
     41 C         -61.4912  -44.4817  -30.6792 C.ar    1  UNL1       -0.0003
     42 C         -60.5675  -45.2676  -29.9668 C.ar    1  UNL1       -0.0000
     43 C         -59.2512  -45.3756  -30.4509 C.ar    1  UNL1       -0.0003
     44 C         -58.8695  -44.7165  -31.6228 C.ar    1  UNL1       -0.0043
     45 C         -60.3383  -43.4932  -34.7286 C.3     1  UNL1        0.0050
     46 C         -59.3769  -43.2074  -33.5798 C.3     1  UNL1        0.0264
@<TRIPOS>BOND
     1    45    46    1
     2    46    39    1
     3    39    40   ar
     4    40    41   ar
     5    41    42   ar
     6    42    29    1
     7    29    30   ar
     8    30    31   ar
     9    31    32   ar
    10    32    33   ar
    11    33    34   ar
    12    34    25    1
    13    25    26    2
    14    25    27   am
    15    27     1    1
    16     1     2   ar
    17     2     3   ar
    18     3     4   ar
    19     4     7    1
    20     7     8    1
    21     8     9    1
    22     9    10    1
    23    10    13    1
    24    13    14    1
    25    14    15    1
    26    15    16   ar
    27    16    17   ar
    28    17    18   ar
    29    18    19   ar
    30    19    21    1
    31    21    22    2
    32    21    23    1
    33    19    20   ar
    34    10    11    1
    35    11    12    1
    36     4     5   ar
    37     5     6   ar
    38    34    35   ar
    39    35    36    1
    40    35    37   ar
    41    37    38   ar
    42    42    43   ar
    43    43    44   ar
    44    44    39   ar
    45    38    29   ar
    46    37    32   ar
    47     6     1   ar
    48    12     7    1
    49    20    15   ar
    50    27    28    1
    51    23    24    1
@<TRIPOS>MOLECULE
*****
 46 51 0 0 0
SMALL
GASTEIGER

@<TRIPOS>ATOM
      1 C         -64.2709  -51.8838  -24.3971 C.ar    1  UNL1        0.0702
      2 C         -63.5296  -52.8410  -23.6955 C.ar    1  UNL1        0.0191
      3 C         -64.1778  -53.8157  -22.9358 C.ar    1  UNL1        0.0356
      4 C         -65.5816  -53.8219  -22.8666 C.ar    1  UNL1        0.1318
      5 N         -66.2795  -52.8573  -23.5297 N.ar    1  UNL1       -0.2279
      6 C         -65.6694  -51.9012  -24.2787 C.ar    1  UNL1        0.1149
      7 N         -66.2907  -54.8105  -22.0890 N.pl3   1  UNL1       -0.2932
      8 C         -67.3399  -54.4108  -21.1353 C.3     1  UNL1        0.0923
      9 C         -67.4688  -55.4337  -20.0003 C.3     1  UNL1        0.0252
     10 C         -67.7178  -56.8757  -20.5158 C.3     1  UNL1        0.0472
     11 C         -67.1349  -57.1179  -21.9292 C.3     1  UNL1        0.0252
     12 C         -65.9213  -56.2291  -22.2113 C.3     1  UNL1        0.0923
     13 C         -69.2187  -57.2326  -20.4927 C.3     1  UNL1        0.2054
     14 O         -70.0273  -56.0987  -20.8134 O.3     1  UNL1       -0.4755
     15 C         -70.9258  -56.0112  -21.8898 C.ar    1  UNL1        0.1388
     16 C         -70.4055  -55.7301  -23.1572 C.ar    1  UNL1        0.0369
     17 C         -71.2485  -55.6388  -24.2654 C.ar    1  UNL1        0.0033
     18 C         -72.6243  -55.8229  -24.1173 C.ar    1  UNL1        0.0066
     19 C         -73.1744  -56.0970  -22.8531 C.ar    1  UNL1        0.0785
     20 C         -72.3150  -56.2035  -21.7434 C.ar    1  UNL1        0.0433
     21 C         -74.6380  -56.2907  -22.7100 C.2     1  UNL1        0.3381
     22 O         -75.3406  -56.5207  -23.7300 O.2     1  UNL1       -0.2451
     23 O         -75.2714  -56.2085  -21.4703 O.3     1  UNL1       -0.4771
     24 H         -74.7879  -55.9217  -20.6290 H       1  UNL1        0.2954
     25 C         -63.9575  -49.4828  -25.1648 C.2     1  UNL1        0.2839
     26 O         -64.8887  -49.0650  -24.4261 O.2     1  UNL1       -0.2665
     27 N         -63.5859  -50.8724  -25.1543 N.am    1  UNL1       -0.2766
     28 H         -62.8070  -51.1888  -25.7720 H       1  UNL1        0.1553
     29 C         -61.1793  -45.6808  -28.8989 C.ar    1  UNL1        0.0002
     30 C         -60.7556  -45.1563  -27.6475 C.ar    1  UNL1        0.0031
     31 C         -61.1751  -45.7429  -26.4406 C.ar    1  UNL1        0.0375
     32 C         -62.0140  -46.8497  -26.5100 C.ar    1  UNL1        0.1452
     33 O         -62.5132  -47.5358  -25.5110 O.2     1  UNL1       -0.4492
     34 C         -63.2496  -48.5104  -26.0154 C.ar    1  UNL1        0.1946
     35 C         -63.2477  -48.4369  -27.4140 C.ar    1  UNL1        0.0202
     36 C         -63.9922  -49.2886  -28.3970 C.3     1  UNL1        0.0345
     37 C         -62.4294  -47.3648  -27.7075 C.ar    1  UNL1        0.0337
     38 C         -62.0353  -46.8080  -28.9241 C.ar    1  UNL1        0.0028
     39 C         -59.8724  -43.8556  -32.5736 C.ar    1  UNL1       -0.0222
     40 C         -59.0406  -44.7595  -31.8964 C.ar    1  UNL1       -0.0043
     41 C         -59.4627  -45.3491  -30.7014 C.ar    1  UNL1       -0.0003
     42 C         -60.7297  -45.0530  -30.1672 C.ar    1  UNL1       -0.0000
     43 C         -61.5658  -44.1567  -30.8574 C.ar    1  UNL1       -0.0003
     44 C         -61.1420  -43.5671  -32.0517 C.ar    1  UNL1       -0.0043
     45 C         -60.4366  -43.5493  -34.9828 C.3     1  UNL1        0.0050
     46 C         -59.4306  -43.2468  -33.8773 C.3     1  UNL1        0.0264
@<TRIPOS>BOND
     1    45    46    1
     2    46    39    1
     3    39    40   ar
     4    40    41   ar
     5    41    42   ar
     6    42    29    1
     7    29    30   ar
     8    30    31   ar
     9    31    32   ar
    10    32    33   ar
    11    33    34   ar
    12    34    25    1
    13    25    26    2
    14    25    27   am
    15    27     1    1
    16     1     2   ar
    17     2     3   ar
    18     3     4   ar
    19     4     7    1
    20     7     8    1
    21     8     9    1
    22     9    10    1
    23    10    13    1
    24    13    14    1
    25    14    15    1
    26    15    16   ar
    27    16    17   ar
    28    17    18   ar
    29    18    19   ar
    30    19    21    1
    31    21    22    2
    32    21    23    1
    33    19    20   ar
    34    10    11    1
    35    11    12    1
    36     4     5   ar
    37     5     6   ar
    38    34    35   ar
    39    35    36    1
    40    35    37   ar
    41    37    38   ar
    42    42    43   ar
    43    43    44   ar
    44    44    39   ar
    45    38    29   ar
    46    37    32   ar
    47     6     1   ar
    48    12     7    1
    49    20    15   ar
    50    27    28    1
    51    23    24    1
