@<TRIPOS>MOLECULE
*****
 45 50 0 0 0
SMALL
GASTEIGER

@<TRIPOS>ATOM
      1 C          60.0252   88.9228    5.0751 C.ar    1  UNL1        0.0702
      2 C          61.2819   88.8700    4.4519 C.ar    1  UNL1        0.0191
      3 C          61.7099   89.9266    3.6469 C.ar    1  UNL1        0.0356
      4 C          60.8685   91.0320    3.4497 C.ar    1  UNL1        0.1318
      5 N          59.6488   91.0560    4.0556 N.ar    1  UNL1       -0.2279
      6 C          59.2105   90.0380    4.8422 C.ar    1  UNL1        0.1149
      7 N          61.2882   92.1499    2.6453 N.pl3   1  UNL1       -0.2932
      8 C          60.3013   92.8661    1.8182 C.3     1  UNL1        0.0923
      9 C          60.9755   93.8461    0.8431 C.3     1  UNL1        0.0252
     10 C          62.3489   93.3264    0.3811 C.3     1  UNL1        0.0472
     11 C          63.2962   93.2091    1.5981 C.3     1  UNL1        0.0252
     12 C          62.6015   92.7576    2.9003 C.3     1  UNL1        0.0923
     13 C          62.2076   92.0151   -0.4290 C.3     1  UNL1        0.2054
     14 O          61.0890   92.0628   -1.3182 O.3     1  UNL1       -0.4755
     15 C          59.8087   91.5332   -1.0745 C.ar    1  UNL1        0.1388
     16 C          59.5943   90.2943   -0.4366 C.ar    1  UNL1        0.0369
     17 C          58.2957   89.8271   -0.2268 C.ar    1  UNL1        0.0033
     18 C          57.1990   90.5819   -0.6464 C.ar    1  UNL1        0.0066
     19 C          57.3910   91.8176   -1.2875 C.ar    1  UNL1        0.0785
     20 C          58.7019   92.2813   -1.4967 C.ar    1  UNL1        0.0433
     21 C          56.2332   92.6216   -1.7379 C.2     1  UNL1        0.3381
     22 O          56.3703   93.8468   -2.0019 O.2     1  UNL1       -0.2451
     23 O          54.9793   92.0314   -1.8747 O.3     1  UNL1       -0.4771
     24 H          54.1802   92.5727   -2.1823 H       1  UNL1        0.2954
     25 C          60.0685   87.5202    7.1902 C.2     1  UNL1        0.2839
     26 O          60.8082   88.3425    7.7936 O.2     1  UNL1       -0.2665
     27 N          59.5396   87.8451    5.8940 N.am    1  UNL1       -0.2766
     28 H          58.7026   87.3178    5.5567 H       1  UNL1        0.1553
     29 C          61.9962   85.3360    8.5742 C.3     1  UNL1        0.0345
     30 C          60.4971   85.3236    8.4926 C.ar    1  UNL1        0.0206
     31 C          59.6732   86.2565    7.8452 C.ar    1  UNL1        0.1946
     32 O          58.4184   85.8600    7.9008 O.2     1  UNL1       -0.4492
     33 C          58.3744   84.7351    8.5668 C.ar    1  UNL1        0.1456
     34 C          57.2370   83.9933    8.8538 C.ar    1  UNL1        0.0375
     35 C          57.3877   82.8138    9.5917 C.ar    1  UNL1        0.0036
     36 C          58.6631   82.3963   10.0403 C.ar    1  UNL1        0.0056
     37 C          59.8146   83.1818    9.7521 C.ar    1  UNL1        0.0328
     38 I          61.6976   82.6717   10.6191 I       1  UNL1       -0.0424
     39 C          59.6281   84.3494    8.9809 C.ar    1  UNL1        0.0390
     40 C          58.7567   81.1387   10.8100 C.ar    1  UNL1        0.0004
     41 C          59.0512   79.9281   10.1609 C.ar    1  UNL1        0.0000
     42 C          59.1181   78.7370   10.8902 C.ar    1  UNL1        0.0000
     43 C          58.8820   78.7449   12.2679 C.ar    1  UNL1        0.0000
     44 C          58.5746   79.9436   12.9178 C.ar    1  UNL1        0.0000
     45 C          58.5068   81.1371   12.1922 C.ar    1  UNL1        0.0000
@<TRIPOS>BOND
     1    29    30    1
     2    30    31   ar
     3    31    25    1
     4    25    26    2
     5    25    27   am
     6    27     1    1
     7     1     2   ar
     8     2     3   ar
     9     3     4   ar
    10     4     7    1
    11     7     8    1
    12     8     9    1
    13     9    10    1
    14    10    13    1
    15    13    14    1
    16    14    15    1
    17    15    16   ar
    18    16    17   ar
    19    17    18   ar
    20    18    19   ar
    21    19    21    1
    22    21    22    2
    23    21    23    1
    24    19    20   ar
    25    10    11    1
    26    11    12    1
    27     4     5   ar
    28     5     6   ar
    29    31    32   ar
    30    32    33   ar
    31    33    34   ar
    32    34    35   ar
    33    35    36   ar
    34    36    40    1
    35    40    41   ar
    36    41    42   ar
    37    42    43   ar
    38    43    44   ar
    39    44    45   ar
    40    36    37   ar
    41    37    38    1
    42    37    39   ar
    43    39    30   ar
    44     6     1   ar
    45    39    33   ar
    46    12     7    1
    47    45    40   ar
    48    20    15   ar
    49    27    28    1
    50    23    24    1
@<TRIPOS>MOLECULE
*****
 45 50 0 0 0
SMALL
GASTEIGER

@<TRIPOS>ATOM
      1 C          59.1316   89.0030    5.8793 C.ar    1  UNL1        0.0702
      2 C          60.3514   89.1594    5.2026 C.ar    1  UNL1        0.0191
      3 C          60.4347   90.0027    4.0937 C.ar    1  UNL1        0.0356
      4 C          59.2875   90.6775    3.6492 C.ar    1  UNL1        0.1318
      5 N          58.1123   90.5014    4.3150 N.ar    1  UNL1       -0.2279
      6 C          58.0074   89.6841    5.3958 C.ar    1  UNL1        0.1149
      7 N          59.3432   91.5737    2.5238 N.pl3   1  UNL1       -0.2932
      8 C          58.2678   91.5496    1.5169 C.3     1  UNL1        0.0923
      9 C          58.6304   92.3779    0.2726 C.3     1  UNL1        0.0252
     10 C          60.1438   92.3428   -0.0067 C.3     1  UNL1        0.0472
     11 C          60.9054   92.9857    1.1760 C.3     1  UNL1        0.0252
     12 C          60.2812   92.7042    2.5593 C.3     1  UNL1        0.0923
     13 C          60.6168   90.9093   -0.3487 C.3     1  UNL1        0.2054
     14 O          61.8696   90.9177   -1.0374 O.3     1  UNL1       -0.4755
     15 C          62.8638   91.9087   -0.9448 C.ar    1  UNL1        0.1388
     16 C          63.1785   92.7878   -2.0012 C.ar    1  UNL1        0.0369
     17 C          64.1785   93.7485   -1.8420 C.ar    1  UNL1        0.0033
     18 C          64.8750   93.8473   -0.6364 C.ar    1  UNL1        0.0066
     19 C          64.5795   92.9783    0.4277 C.ar    1  UNL1        0.0785
     20 C          63.5719   92.0120    0.2597 C.ar    1  UNL1        0.0433
     21 C          65.3162   93.0751    1.7074 C.2     1  UNL1        0.3381
     22 O          64.8762   93.7942    2.6450 O.2     1  UNL1       -0.2451
     23 O          66.5044   92.3717    1.8884 O.3     1  UNL1       -0.4771
     24 H          67.0165   92.4311    2.7606 H       1  UNL1        0.2954
     25 C          60.0542   87.8697    7.9547 C.2     1  UNL1        0.2839
     26 O          61.0671   88.6182    7.9878 O.2     1  UNL1       -0.2665
     27 N          59.0004   88.1269    7.0120 N.am    1  UNL1       -0.2766
     28 H          58.0586   87.7145    7.2006 H       1  UNL1        0.1553
     29 C          60.0316   84.6963    7.3789 C.3     1  UNL1        0.0345
     30 C          59.9426   85.3940    8.7053 C.ar    1  UNL1        0.0206
     31 C          59.9052   86.7769    8.9377 C.ar    1  UNL1        0.1946
     32 O          59.7225   87.0105   10.2210 O.2     1  UNL1       -0.4492
     33 C          59.6620   85.8604   10.8411 C.ar    1  UNL1        0.1456
     34 C          59.4846   85.6696   12.2043 C.ar    1  UNL1        0.0375
     35 C          59.4561   84.3567   12.6882 C.ar    1  UNL1        0.0036
     36 C          59.6142   83.2567   11.8122 C.ar    1  UNL1        0.0056
     37 C          59.8148   83.4748   10.4200 C.ar    1  UNL1        0.0328
     38 I          60.2776   81.8309    9.1391 I       1  UNL1       -0.0424
     39 C          59.8084   84.8109    9.9642 C.ar    1  UNL1        0.0390
     40 C          59.5691   81.8952   12.3839 C.ar    1  UNL1        0.0004
     41 C          60.6957   81.3569   13.0278 C.ar    1  UNL1        0.0000
     42 C          60.6554   80.0600   13.5490 C.ar    1  UNL1        0.0000
     43 C          59.4958   79.2899   13.4223 C.ar    1  UNL1        0.0000
     44 C          58.3760   79.8141   12.7704 C.ar    1  UNL1        0.0000
     45 C          58.4121   81.1106   12.2479 C.ar    1  UNL1        0.0000
@<TRIPOS>BOND
     1    29    30    1
     2    30    31   ar
     3    31    25    1
     4    25    26    2
     5    25    27   am
     6    27     1    1
     7     1     2   ar
     8     2     3   ar
     9     3     4   ar
    10     4     7    1
    11     7     8    1
    12     8     9    1
    13     9    10    1
    14    10    13    1
    15    13    14    1
    16    14    15    1
    17    15    16   ar
    18    16    17   ar
    19    17    18   ar
    20    18    19   ar
    21    19    21    1
    22    21    22    2
    23    21    23    1
    24    19    20   ar
    25    10    11    1
    26    11    12    1
    27     4     5   ar
    28     5     6   ar
    29    31    32   ar
    30    32    33   ar
    31    33    34   ar
    32    34    35   ar
    33    35    36   ar
    34    36    40    1
    35    40    41   ar
    36    41    42   ar
    37    42    43   ar
    38    43    44   ar
    39    44    45   ar
    40    36    37   ar
    41    37    38    1
    42    37    39   ar
    43    39    30   ar
    44     6     1   ar
    45    39    33   ar
    46    12     7    1
    47    45    40   ar
    48    20    15   ar
    49    27    28    1
    50    23    24    1
@<TRIPOS>MOLECULE
*****
 45 50 0 0 0
SMALL
GASTEIGER

@<TRIPOS>ATOM
      1 C          61.3885   85.7609   10.3976 C.ar    1  UNL1        0.0702
      2 C          60.0080   85.6720   10.6358 C.ar    1  UNL1        0.0191
      3 C          59.2423   84.7133    9.9706 C.ar    1  UNL1        0.0356
      4 C          59.8581   83.8528    9.0491 C.ar    1  UNL1        0.1318
      5 N          61.1971   83.9653    8.8259 N.ar    1  UNL1       -0.2279
      6 C          61.9620   84.8921    9.4608 C.ar    1  UNL1        0.1149
      7 N          59.1029   82.8367    8.3635 N.pl3   1  UNL1       -0.2932
      8 C          57.6424   82.7648    8.5447 C.3     1  UNL1        0.0923
      9 C          57.0553   81.4727    7.9518 C.3     1  UNL1        0.0252
     10 C          58.0476   80.3008    8.0602 C.3     1  UNL1        0.0472
     11 C          59.3164   80.6165    7.2339 C.3     1  UNL1        0.0252
     12 C          59.7359   82.1016    7.2599 C.3     1  UNL1        0.0923
     13 C          58.3373   79.9476    9.5390 C.3     1  UNL1        0.2054
     14 O          59.7414   79.8744    9.7983 O.3     1  UNL1       -0.4755
     15 C          60.4762   80.7210   10.6482 C.ar    1  UNL1        0.1388
     16 C          59.8969   81.4309   11.7198 C.ar    1  UNL1        0.0369
     17 C          60.6849   82.2556   12.5243 C.ar    1  UNL1        0.0033
     18 C          62.0524   82.3844   12.2752 C.ar    1  UNL1        0.0066
     19 C          62.6487   81.6885   11.2099 C.ar    1  UNL1        0.0785
     20 C          61.8484   80.8606   10.4028 C.ar    1  UNL1        0.0433
     21 C          64.0970   81.8229   10.9379 C.2     1  UNL1        0.3381
     22 O          64.5100   82.0322    9.7651 O.2     1  UNL1       -0.2451
     23 O          65.0190   81.7193   11.9764 O.3     1  UNL1       -0.4771
     24 H          66.0127   81.8097   11.8010 H       1  UNL1        0.2954
     25 C          62.4867   88.0471   10.4973 C.2     1  UNL1        0.2839
     26 O          61.7985   88.4873    9.5381 O.2     1  UNL1       -0.2665
     27 N          62.2073   86.7489   11.0467 N.am    1  UNL1       -0.2766
     28 H          62.5551   86.5355   12.0089 H       1  UNL1        0.1553
     29 C          63.1550   88.3625   13.6367 C.3     1  UNL1        0.0345
     30 C          63.8583   89.0025   12.4749 C.ar    1  UNL1        0.0206
     31 C          63.5268   88.8944   11.1161 C.ar    1  UNL1        0.1946
     32 O          64.3084   89.6770   10.4009 O.2     1  UNL1       -0.4492
     33 C          65.1450   90.2707   11.2124 C.ar    1  UNL1        0.1456
     34 C          66.1386   91.1712   10.8546 C.ar    1  UNL1        0.0375
     35 C          66.9477   91.6975   11.8679 C.ar    1  UNL1        0.0036
     36 C          66.7630   91.3134   13.2173 C.ar    1  UNL1        0.0056
     37 C          65.7509   90.3733   13.5606 C.ar    1  UNL1        0.0328
     38 I          65.6224   89.6262   15.5563 I       1  UNL1       -0.0424
     39 C          64.9354   89.8863   12.5163 C.ar    1  UNL1        0.0390
     40 C          67.6460   91.9089   14.2412 C.ar    1  UNL1        0.0004
     41 C          67.3812   93.1917   14.7491 C.ar    1  UNL1        0.0000
     42 C          68.2314   93.7600   15.7027 C.ar    1  UNL1        0.0000
     43 C          69.3548   93.0569   16.1472 C.ar    1  UNL1        0.0000
     44 C          69.6319   91.7860   15.6357 C.ar    1  UNL1        0.0000
     45 C          68.7842   91.2141   14.6820 C.ar    1  UNL1        0.0000
@<TRIPOS>BOND
     1    29    30    1
     2    30    31   ar
     3    31    25    1
     4    25    26    2
     5    25    27   am
     6    27     1    1
     7     1     2   ar
     8     2     3   ar
     9     3     4   ar
    10     4     7    1
    11     7     8    1
    12     8     9    1
    13     9    10    1
    14    10    13    1
    15    13    14    1
    16    14    15    1
    17    15    16   ar
    18    16    17   ar
    19    17    18   ar
    20    18    19   ar
    21    19    21    1
    22    21    22    2
    23    21    23    1
    24    19    20   ar
    25    10    11    1
    26    11    12    1
    27     4     5   ar
    28     5     6   ar
    29    31    32   ar
    30    32    33   ar
    31    33    34   ar
    32    34    35   ar
    33    35    36   ar
    34    36    40    1
    35    40    41   ar
    36    41    42   ar
    37    42    43   ar
    38    43    44   ar
    39    44    45   ar
    40    36    37   ar
    41    37    38    1
    42    37    39   ar
    43    39    30   ar
    44     6     1   ar
    45    39    33   ar
    46    12     7    1
    47    45    40   ar
    48    20    15   ar
    49    27    28    1
    50    23    24    1
@<TRIPOS>MOLECULE
*****
 45 50 0 0 0
SMALL
GASTEIGER

@<TRIPOS>ATOM
      1 C          61.3232   85.7492   11.7946 C.ar    1  UNL1        0.0702
      2 C          59.9983   86.0799   11.4691 C.ar    1  UNL1        0.0191
      3 C          59.1343   85.1034   10.9714 C.ar    1  UNL1        0.0356
      4 C          59.6040   83.7950   10.7811 C.ar    1  UNL1        0.1318
      5 N          60.8967   83.5003   11.0934 N.ar    1  UNL1       -0.2279
      6 C          61.7562   84.4351   11.5777 C.ar    1  UNL1        0.1149
      7 N          58.7333   82.7577   10.2926 N.pl3   1  UNL1       -0.2932
      8 C          58.9899   81.3545   10.6617 C.3     1  UNL1        0.0923
      9 C          58.1258   80.3803    9.8432 C.3     1  UNL1        0.0252
     10 C          57.8596   80.9175    8.4253 C.3     1  UNL1        0.0472
     11 C          57.0574   82.2370    8.5119 C.3     1  UNL1        0.0252
     12 C          57.4366   83.1313    9.7114 C.3     1  UNL1        0.0923
     13 C          59.1737   81.0375    7.6165 C.3     1  UNL1        0.2054
     14 O          59.2954   82.3196    6.9956 O.3     1  UNL1       -0.4755
     15 C          60.2049   83.3329    7.3495 C.ar    1  UNL1        0.1388
     16 C          61.5563   83.0821    7.6635 C.ar    1  UNL1        0.0369
     17 C          62.4051   84.1354    8.0078 C.ar    1  UNL1        0.0033
     18 C          61.9237   85.4451    8.0441 C.ar    1  UNL1        0.0066
     19 C          60.5791   85.7162    7.7383 C.ar    1  UNL1        0.0785
     20 C          59.7296   84.6501    7.3936 C.ar    1  UNL1        0.0433
     21 C          60.0611   87.1017    7.7780 C.2     1  UNL1        0.3381
     22 O          58.9285   87.3743    7.2958 O.2     1  UNL1       -0.2451
     23 O          60.8211   88.1193    8.3492 O.3     1  UNL1       -0.4771
     24 H          60.4758   89.0712    8.3815 H       1  UNL1        0.2954
     25 C          62.4853   88.0018   11.6597 C.2     1  UNL1        0.2839
     26 O          61.6836   88.4320   10.7881 O.2     1  UNL1       -0.2665
     27 N          62.2496   86.7315   12.2891 N.am    1  UNL1       -0.2766
     28 H          62.7208   86.5386   13.2020 H       1  UNL1        0.1553
     29 C          63.1543   88.9946   14.6545 C.3     1  UNL1        0.0345
     30 C          63.9506   89.2325   13.4041 C.ar    1  UNL1        0.0206
     31 C          63.6229   88.8355   12.0991 C.ar    1  UNL1        0.1946
     32 O          64.5109   89.3108   11.2503 O.2     1  UNL1       -0.4492
     33 C          65.4106   89.9746   11.9292 C.ar    1  UNL1        0.1456
     34 C          66.5205   90.6242   11.4073 C.ar    1  UNL1        0.0375
     35 C          67.3816   91.2766   12.2969 C.ar    1  UNL1        0.0036
     36 C          67.1315   91.2645   13.6897 C.ar    1  UNL1        0.0056
     37 C          65.9981   90.5756   14.2063 C.ar    1  UNL1        0.0328
     38 I          65.7475   90.3672   16.3161 I       1  UNL1       -0.0424
     39 C          65.1363   89.9541   13.2768 C.ar    1  UNL1        0.0390
     40 C          68.0750   91.9765   14.5760 C.ar    1  UNL1        0.0004
     41 C          69.3400   91.4315   14.8521 C.ar    1  UNL1        0.0000
     42 C          70.2217   92.0985   15.7082 C.ar    1  UNL1        0.0000
     43 C          69.8433   93.3066   16.3008 C.ar    1  UNL1        0.0000
     44 C          68.5808   93.8474   16.0416 C.ar    1  UNL1        0.0000
     45 C          67.6960   93.1836   15.1860 C.ar    1  UNL1        0.0000
@<TRIPOS>BOND
     1    29    30    1
     2    30    31   ar
     3    31    25    1
     4    25    26    2
     5    25    27   am
     6    27     1    1
     7     1     2   ar
     8     2     3   ar
     9     3     4   ar
    10     4     7    1
    11     7     8    1
    12     8     9    1
    13     9    10    1
    14    10    13    1
    15    13    14    1
    16    14    15    1
    17    15    16   ar
    18    16    17   ar
    19    17    18   ar
    20    18    19   ar
    21    19    21    1
    22    21    22    2
    23    21    23    1
    24    19    20   ar
    25    10    11    1
    26    11    12    1
    27     4     5   ar
    28     5     6   ar
    29    31    32   ar
    30    32    33   ar
    31    33    34   ar
    32    34    35   ar
    33    35    36   ar
    34    36    40    1
    35    40    41   ar
    36    41    42   ar
    37    42    43   ar
    38    43    44   ar
    39    44    45   ar
    40    36    37   ar
    41    37    38    1
    42    37    39   ar
    43    39    30   ar
    44     6     1   ar
    45    39    33   ar
    46    12     7    1
    47    45    40   ar
    48    20    15   ar
    49    27    28    1
    50    23    24    1
@<TRIPOS>MOLECULE
*****
 45 50 0 0 0
SMALL
GASTEIGER

@<TRIPOS>ATOM
      1 C          61.3780   85.7852   10.4183 C.ar    1  UNL1        0.0702
      2 C          59.9778   85.8182   10.5121 C.ar    1  UNL1        0.0191
      3 C          59.2086   84.8548    9.8580 C.ar    1  UNL1        0.0356
      4 C          59.8431   83.8655    9.0914 C.ar    1  UNL1        0.1318
      5 N          61.2025   83.8602    9.0059 N.ar    1  UNL1       -0.2279
      6 C          61.9715   84.7891    9.6328 C.ar    1  UNL1        0.1149
      7 N          59.0817   82.8422    8.4236 N.pl3   1  UNL1       -0.2932
      8 C          57.6363   82.7210    8.6823 C.3     1  UNL1        0.0923
      9 C          57.0559   81.4251    8.0912 C.3     1  UNL1        0.0252
     10 C          58.0870   80.2824    8.1169 C.3     1  UNL1        0.0472
     11 C          59.2984   80.6557    7.2306 C.3     1  UNL1        0.0252
     12 C          59.6744   82.1522    7.2697 C.3     1  UNL1        0.0923
     13 C          58.4682   79.9050    9.5687 C.3     1  UNL1        0.2054
     14 O          59.8549   79.5757    9.6811 O.3     1  UNL1       -0.4755
     15 C          60.8421   80.3401   10.3294 C.ar    1  UNL1        0.1388
     16 C          62.2098   80.2805    9.9923 C.ar    1  UNL1        0.0369
     17 C          63.1376   81.0664   10.6778 C.ar    1  UNL1        0.0033
     18 C          62.7197   81.9177   11.7021 C.ar    1  UNL1        0.0066
     19 C          61.3616   81.9891   12.0563 C.ar    1  UNL1        0.0785
     20 C          60.4328   81.1935   11.3624 C.ar    1  UNL1        0.0433
     21 C          60.9119   82.8868   13.1433 C.2     1  UNL1        0.3381
     22 O          59.8063   83.4872   13.0597 O.2     1  UNL1       -0.2451
     23 O          61.7069   83.0771   14.2707 O.3     1  UNL1       -0.4771
     24 H          61.4084   83.6895   15.0206 H       1  UNL1        0.2954
     25 C          62.5106   88.0556   10.4897 C.2     1  UNL1        0.2839
     26 O          61.8417   88.4883    9.5136 O.2     1  UNL1       -0.2665
     27 N          62.2039   86.7724   11.0595 N.am    1  UNL1       -0.2766
     28 H          62.5360   86.5718   12.0300 H       1  UNL1        0.1553
     29 C          63.1796   88.3772   13.6284 C.3     1  UNL1        0.0345
     30 C          63.8876   89.0086   12.4648 C.ar    1  UNL1        0.0206
     31 C          63.5559   88.8982   11.1062 C.ar    1  UNL1        0.1946
     32 O          64.3429   89.6733   10.3887 O.2     1  UNL1       -0.4492
     33 C          65.1829   90.2643   11.1986 C.ar    1  UNL1        0.1456
     34 C          66.1826   91.1571   10.8382 C.ar    1  UNL1        0.0375
     35 C          66.9946   91.6815   11.8502 C.ar    1  UNL1        0.0036
     36 C          66.8068   91.3031   13.2007 C.ar    1  UNL1        0.0056
     37 C          65.7885   90.3708   13.5467 C.ar    1  UNL1        0.0328
     38 I          65.6542   89.6312   15.5449 I       1  UNL1       -0.0424
     39 C          64.9703   89.8856   12.5037 C.ar    1  UNL1        0.0390
     40 C          67.6932   91.8963   14.2231 C.ar    1  UNL1        0.0004
     41 C          67.4335   93.1804   14.7305 C.ar    1  UNL1        0.0000
     42 C          68.2869   93.7463   15.6826 C.ar    1  UNL1        0.0000
     43 C          69.4085   93.0398   16.1260 C.ar    1  UNL1        0.0000
     44 C          69.6807   91.7677   15.6149 C.ar    1  UNL1        0.0000
     45 C          68.8297   91.1980   14.6627 C.ar    1  UNL1        0.0000
@<TRIPOS>BOND
     1    29    30    1
     2    30    31   ar
     3    31    25    1
     4    25    26    2
     5    25    27   am
     6    27     1    1
     7     1     2   ar
     8     2     3   ar
     9     3     4   ar
    10     4     7    1
    11     7     8    1
    12     8     9    1
    13     9    10    1
    14    10    13    1
    15    13    14    1
    16    14    15    1
    17    15    16   ar
    18    16    17   ar
    19    17    18   ar
    20    18    19   ar
    21    19    21    1
    22    21    22    2
    23    21    23    1
    24    19    20   ar
    25    10    11    1
    26    11    12    1
    27     4     5   ar
    28     5     6   ar
    29    31    32   ar
    30    32    33   ar
    31    33    34   ar
    32    34    35   ar
    33    35    36   ar
    34    36    40    1
    35    40    41   ar
    36    41    42   ar
    37    42    43   ar
    38    43    44   ar
    39    44    45   ar
    40    36    37   ar
    41    37    38    1
    42    37    39   ar
    43    39    30   ar
    44     6     1   ar
    45    39    33   ar
    46    12     7    1
    47    45    40   ar
    48    20    15   ar
    49    27    28    1
    50    23    24    1
@<TRIPOS>MOLECULE
*****
 45 50 0 0 0
SMALL
GASTEIGER

@<TRIPOS>ATOM
      1 C          61.3451   85.8279   10.2590 C.ar    1  UNL1        0.0702
      2 C          60.0011   86.0709    9.9349 C.ar    1  UNL1        0.0191
      3 C          59.2499   85.0930    9.2813 C.ar    1  UNL1        0.0356
      4 C          59.8521   83.8742    8.9339 C.ar    1  UNL1        0.1318
      5 N          61.1609   83.6654    9.2486 N.ar    1  UNL1       -0.2279
      6 C          61.9120   84.6036    9.8832 C.ar    1  UNL1        0.1149
      7 N          59.1001   82.8345    8.2810 N.pl3   1  UNL1       -0.2932
      8 C          57.6416   82.7562    8.4748 C.3     1  UNL1        0.0923
      9 C          57.0604   81.4443    7.9206 C.3     1  UNL1        0.0252
     10 C          58.0627   80.2834    8.0527 C.3     1  UNL1        0.0472
     11 C          59.3231   80.5868    7.2091 C.3     1  UNL1        0.0252
     12 C          59.7311   82.0753    7.1927 C.3     1  UNL1        0.0923
     13 C          58.3657   79.9718    9.5382 C.3     1  UNL1        0.2054
     14 O          57.7707   80.9354   10.4110 O.3     1  UNL1       -0.4755
     15 C          58.4494   81.7612   11.3255 C.ar    1  UNL1        0.1388
     16 C          59.7712   81.5182   11.7517 C.ar    1  UNL1        0.0369
     17 C          60.3852   82.3785   12.6633 C.ar    1  UNL1        0.0033
     18 C          59.6966   83.4862   13.1605 C.ar    1  UNL1        0.0066
     19 C          58.3771   83.7443   12.7516 C.ar    1  UNL1        0.0785
     20 C          57.7644   82.8726   11.8340 C.ar    1  UNL1        0.0433
     21 C          57.6399   84.9148   13.2771 C.2     1  UNL1        0.3381
     22 O          56.6883   85.4178   12.6204 O.2     1  UNL1       -0.2451
     23 O          57.9908   85.4726   14.5038 O.3     1  UNL1       -0.4771
     24 H          57.4926   86.2740   14.8726 H       1  UNL1        0.2954
     25 C          62.5210   88.0765   10.3212 C.2     1  UNL1        0.2839
     26 O          61.9125   88.4919    9.2991 O.2     1  UNL1       -0.2665
     27 N          62.1580   86.8179   10.9124 N.am    1  UNL1       -0.2766
     28 H          62.4354   86.6409   11.9044 H       1  UNL1        0.1553
     29 C          63.1993   88.2895   13.4671 C.3     1  UNL1        0.0345
     30 C          63.8873   88.9813   12.3260 C.ar    1  UNL1        0.0206
     31 C          63.5510   88.9169   10.9656 C.ar    1  UNL1        0.1946
     32 O          64.3173   89.7364   10.2757 O.2     1  UNL1       -0.4492
     33 C          65.1487   90.3134   11.1045 C.ar    1  UNL1        0.1456
     34 C          66.1269   91.2412   10.7750 C.ar    1  UNL1        0.0375
     35 C          66.9328   91.7431   11.8032 C.ar    1  UNL1        0.0036
     36 C          66.7602   91.3082   13.1387 C.ar    1  UNL1        0.0056
     37 C          65.7640   90.3411   13.4523 C.ar    1  UNL1        0.0328
     38 I          65.6563   89.5212   15.4204 I       1  UNL1       -0.0424
     39 C          64.9511   89.8794   12.3946 C.ar    1  UNL1        0.0390
     40 C          67.6389   91.8801   14.1796 C.ar    1  UNL1        0.0004
     41 C          67.3647   93.1455   14.7248 C.ar    1  UNL1        0.0000
     42 C          68.2108   93.6919   15.6946 C.ar    1  UNL1        0.0000
     43 C          69.3395   92.9846   16.1185 C.ar    1  UNL1        0.0000
     44 C          69.6260   91.7314   15.5700 C.ar    1  UNL1        0.0000
     45 C          68.7824   91.1812   14.5999 C.ar    1  UNL1        0.0000
@<TRIPOS>BOND
     1    29    30    1
     2    30    31   ar
     3    31    25    1
     4    25    26    2
     5    25    27   am
     6    27     1    1
     7     1     2   ar
     8     2     3   ar
     9     3     4   ar
    10     4     7    1
    11     7     8    1
    12     8     9    1
    13     9    10    1
    14    10    13    1
    15    13    14    1
    16    14    15    1
    17    15    16   ar
    18    16    17   ar
    19    17    18   ar
    20    18    19   ar
    21    19    21    1
    22    21    22    2
    23    21    23    1
    24    19    20   ar
    25    10    11    1
    26    11    12    1
    27     4     5   ar
    28     5     6   ar
    29    31    32   ar
    30    32    33   ar
    31    33    34   ar
    32    34    35   ar
    33    35    36   ar
    34    36    40    1
    35    40    41   ar
    36    41    42   ar
    37    42    43   ar
    38    43    44   ar
    39    44    45   ar
    40    36    37   ar
    41    37    38    1
    42    37    39   ar
    43    39    30   ar
    44     6     1   ar
    45    39    33   ar
    46    12     7    1
    47    45    40   ar
    48    20    15   ar
    49    27    28    1
    50    23    24    1
@<TRIPOS>MOLECULE
*****
 45 50 0 0 0
SMALL
GASTEIGER

@<TRIPOS>ATOM
      1 C          59.8880   87.8013    8.1562 C.ar    1  UNL1        0.0702
      2 C          59.4989   86.4754    7.9091 C.ar    1  UNL1        0.0191
      3 C          59.3243   85.5867    8.9710 C.ar    1  UNL1        0.0356
      4 C          59.5587   86.0221   10.2841 C.ar    1  UNL1        0.1318
      5 N          59.9465   87.3101   10.4986 N.ar    1  UNL1       -0.2279
      6 C          60.1243   88.1924    9.4801 C.ar    1  UNL1        0.1149
      7 N          59.3648   85.1389   11.4044 N.pl3   1  UNL1       -0.2932
      8 C          58.1824   85.3034   12.2682 C.3     1  UNL1        0.0923
      9 C          58.2840   84.4523   13.5453 C.3     1  UNL1        0.0252
     10 C          59.7437   84.3093   14.0129 C.3     1  UNL1        0.0472
     11 C          60.5646   83.5660   12.9332 C.3     1  UNL1        0.0252
     12 C          60.1571   83.9040   11.4834 C.3     1  UNL1        0.0923
     13 C          60.3389   85.6798   14.4166 C.3     1  UNL1        0.2054
     14 O          61.6365   85.8785   13.8502 O.3     1  UNL1       -0.4755
     15 C          62.3648   87.0821   13.8398 C.ar    1  UNL1        0.1388
     16 C          62.7455   87.7643   15.0134 C.ar    1  UNL1        0.0369
     17 C          63.4674   88.9561   14.9309 C.ar    1  UNL1        0.0033
     18 C          63.8186   89.4824   13.6866 C.ar    1  UNL1        0.0066
     19 C          63.4457   88.8200   12.5047 C.ar    1  UNL1        0.0785
     20 C          62.7173   87.6207   12.5954 C.ar    1  UNL1        0.0433
     21 C          63.8116   89.3739   11.1821 C.2     1  UNL1        0.3381
     22 O          63.1309   89.0890   10.1598 O.2     1  UNL1       -0.2451
     23 O          64.9131   90.2162   11.0541 O.3     1  UNL1       -0.4771
     24 H          65.1722   90.6007   10.1533 H       1  UNL1        0.2954
     25 C          59.0965   89.0972    6.1222 C.2     1  UNL1        0.2839
     26 O          57.8885   88.8060    6.3306 O.2     1  UNL1       -0.2665
     27 N          60.0992   88.7406    7.0881 N.am    1  UNL1       -0.2766
     28 H          61.0121   89.2489    7.0616 H       1  UNL1        0.1553
     29 C          62.0728   89.7282    5.0518 C.3     1  UNL1        0.0345
     30 C          60.7652   90.1183    4.4258 C.ar    1  UNL1        0.0206
     31 C          59.4773   89.8785    4.9277 C.ar    1  UNL1        0.1946
     32 O          58.5808   90.4567    4.1550 O.2     1  UNL1       -0.4492
     33 C          59.2085   91.0395    3.1664 C.ar    1  UNL1        0.1456
     34 C          58.6251   91.7529    2.1286 C.ar    1  UNL1        0.0375
     35 C          59.4639   92.2988    1.1504 C.ar    1  UNL1        0.0036
     36 C          60.8660   92.1188    1.2139 C.ar    1  UNL1        0.0056
     37 C          61.4427   91.3668    2.2760 C.ar    1  UNL1        0.0328
     38 I          63.5270   90.9062    2.2470 I       1  UNL1       -0.0424
     39 C          60.5685   90.8563    3.2598 C.ar    1  UNL1        0.0390
     40 C          61.6977   92.7248    0.1538 C.ar    1  UNL1        0.0004
     41 C          61.0981   93.2907   -0.9837 C.ar    1  UNL1        0.0000
     42 C          61.8901   93.8445   -1.9943 C.ar    1  UNL1        0.0000
     43 C          63.2832   93.8279   -1.8810 C.ar    1  UNL1        0.0000
     44 C          63.8867   93.2538   -0.7586 C.ar    1  UNL1        0.0000
     45 C          63.0984   92.6990    0.2545 C.ar    1  UNL1        0.0000
@<TRIPOS>BOND
     1    29    30    1
     2    30    31   ar
     3    31    25    1
     4    25    26    2
     5    25    27   am
     6    27     1    1
     7     1     2   ar
     8     2     3   ar
     9     3     4   ar
    10     4     7    1
    11     7     8    1
    12     8     9    1
    13     9    10    1
    14    10    13    1
    15    13    14    1
    16    14    15    1
    17    15    16   ar
    18    16    17   ar
    19    17    18   ar
    20    18    19   ar
    21    19    21    1
    22    21    22    2
    23    21    23    1
    24    19    20   ar
    25    10    11    1
    26    11    12    1
    27     4     5   ar
    28     5     6   ar
    29    31    32   ar
    30    32    33   ar
    31    33    34   ar
    32    34    35   ar
    33    35    36   ar
    34    36    40    1
    35    40    41   ar
    36    41    42   ar
    37    42    43   ar
    38    43    44   ar
    39    44    45   ar
    40    36    37   ar
    41    37    38    1
    42    37    39   ar
    43    39    30   ar
    44     6     1   ar
    45    39    33   ar
    46    12     7    1
    47    45    40   ar
    48    20    15   ar
    49    27    28    1
    50    23    24    1
@<TRIPOS>MOLECULE
*****
 45 50 0 0 0
SMALL
GASTEIGER

@<TRIPOS>ATOM
      1 C          61.1381   85.1266   12.4761 C.ar    1  UNL1        0.0702
      2 C          59.8926   85.2897   11.8494 C.ar    1  UNL1        0.0191
      3 C          59.1297   84.1730   11.5049 C.ar    1  UNL1        0.0356
      4 C          59.6243   82.8873   11.7717 C.ar    1  UNL1        0.1318
      5 N          60.8405   82.7534   12.3703 N.ar    1  UNL1       -0.2279
      6 C          61.6013   83.8263   12.7131 C.ar    1  UNL1        0.1149
      7 N          58.8531   81.7145   11.4517 N.pl3   1  UNL1       -0.2932
      8 C          58.6668   80.6632   12.4671 C.3     1  UNL1        0.0923
      9 C          58.0489   79.3896   11.8655 C.3     1  UNL1        0.0252
     10 C          58.4947   79.1815   10.4068 C.3     1  UNL1        0.0472
     11 C          57.9913   80.3572    9.5370 C.3     1  UNL1        0.0252
     12 C          58.0051   81.7251   10.2518 C.3     1  UNL1        0.0923
     13 C          60.0219   78.9468   10.3164 C.3     1  UNL1        0.2054
     14 O          60.6355   79.8272    9.3717 O.3     1  UNL1       -0.4755
     15 C          61.6802   80.7322    9.6339 C.ar    1  UNL1        0.1388
     16 C          62.7609   80.4369   10.4898 C.ar    1  UNL1        0.0369
     17 C          63.7644   81.3825   10.7069 C.ar    1  UNL1        0.0033
     18 C          63.7069   82.6278   10.0788 C.ar    1  UNL1        0.0066
     19 C          62.6363   82.9435    9.2250 C.ar    1  UNL1        0.0785
     20 C          61.6283   81.9866    9.0121 C.ar    1  UNL1        0.0433
     21 C          62.5671   84.2629    8.5585 C.2     1  UNL1        0.3381
     22 O          63.0779   84.4300    7.4179 O.2     1  UNL1       -0.2451
     23 O          61.9360   85.3341    9.1858 O.3     1  UNL1       -0.4771
     24 H          61.8831   86.2415    8.7383 H       1  UNL1        0.2954
     25 C          62.2770   87.3278   11.9283 C.2     1  UNL1        0.2839
     26 O          61.6152   87.4764   10.8665 O.2     1  UNL1       -0.2665
     27 N          61.9630   86.2510   12.8268 N.am    1  UNL1       -0.2766
     28 H          62.2886   86.3244   13.8172 H       1  UNL1        0.1553
     29 C          64.0201   87.4167   14.6405 C.3     1  UNL1        0.0345
     30 C          64.1186   88.3264   13.4502 C.ar    1  UNL1        0.0206
     31 C          63.3210   88.3061   12.2964 C.ar    1  UNL1        0.1946
     32 O          63.6364   89.3194   11.5162 O.2     1  UNL1       -0.4492
     33 C          64.6088   89.9849   12.0840 C.ar    1  UNL1        0.1456
     34 C          65.2333   91.1178   11.5809 C.ar    1  UNL1        0.0375
     35 C          66.2678   91.6885   12.3308 C.ar    1  UNL1        0.0036
     36 C          66.6712   91.1192   13.5619 C.ar    1  UNL1        0.0056
     37 C          66.0310   89.9457   14.0506 C.ar    1  UNL1        0.0328
     38 I          66.7886   88.9624   15.7874 I       1  UNL1       -0.0424
     39 C          64.9725   89.4151   13.2819 C.ar    1  UNL1        0.0390
     40 C          67.7659   91.7721   14.3091 C.ar    1  UNL1        0.0004
     41 C          69.0869   91.3110   14.1821 C.ar    1  UNL1        0.0000
     42 C          70.1167   91.9185   14.9071 C.ar    1  UNL1        0.0000
     43 C          69.8337   92.9815   15.7695 C.ar    1  UNL1        0.0000
     44 C          68.5195   93.4360   15.9114 C.ar    1  UNL1        0.0000
     45 C          67.4867   92.8314   15.1880 C.ar    1  UNL1        0.0000
@<TRIPOS>BOND
     1    29    30    1
     2    30    31   ar
     3    31    25    1
     4    25    26    2
     5    25    27   am
     6    27     1    1
     7     1     2   ar
     8     2     3   ar
     9     3     4   ar
    10     4     7    1
    11     7     8    1
    12     8     9    1
    13     9    10    1
    14    10    13    1
    15    13    14    1
    16    14    15    1
    17    15    16   ar
    18    16    17   ar
    19    17    18   ar
    20    18    19   ar
    21    19    21    1
    22    21    22    2
    23    21    23    1
    24    19    20   ar
    25    10    11    1
    26    11    12    1
    27     4     5   ar
    28     5     6   ar
    29    31    32   ar
    30    32    33   ar
    31    33    34   ar
    32    34    35   ar
    33    35    36   ar
    34    36    40    1
    35    40    41   ar
    36    41    42   ar
    37    42    43   ar
    38    43    44   ar
    39    44    45   ar
    40    36    37   ar
    41    37    38    1
    42    37    39   ar
    43    39    30   ar
    44     6     1   ar
    45    39    33   ar
    46    12     7    1
    47    45    40   ar
    48    20    15   ar
    49    27    28    1
    50    23    24    1
@<TRIPOS>MOLECULE
*****
 45 50 0 0 0
SMALL
GASTEIGER

@<TRIPOS>ATOM
      1 C          60.3659   86.2617   10.1673 C.ar    1  UNL1        0.0702
      2 C          59.4116   85.3308   10.6069 C.ar    1  UNL1        0.0191
      3 C          59.7612   84.3587   11.5453 C.ar    1  UNL1        0.0356
      4 C          61.0765   84.3065   12.0312 C.ar    1  UNL1        0.1318
      5 N          61.9882   85.2132   11.5816 N.ar    1  UNL1       -0.2279
      6 C          61.6708   86.1673   10.6672 C.ar    1  UNL1        0.1149
      7 N          61.4650   83.3324   13.0176 N.pl3   1  UNL1       -0.2932
      8 C          62.5589   83.6391   13.9559 C.3     1  UNL1        0.0923
      9 C          62.9991   82.3960   14.7475 C.3     1  UNL1        0.0252
     10 C          62.8455   81.1121   13.9123 C.3     1  UNL1        0.0472
     11 C          61.3545   80.8949   13.5628 C.3     1  UNL1        0.0252
     12 C          60.5725   82.1968   13.2873 C.3     1  UNL1        0.0923
     13 C          63.7796   81.1320   12.6784 C.3     1  UNL1        0.2054
     14 O          63.0733   80.8122   11.4771 O.3     1  UNL1       -0.4755
     15 C          62.8065   81.6891   10.4099 C.ar    1  UNL1        0.1388
     16 C          63.7080   82.6870    9.9868 C.ar    1  UNL1        0.0369
     17 C          63.3790   83.5250    8.9199 C.ar    1  UNL1        0.0033
     18 C          62.1555   83.3821    8.2632 C.ar    1  UNL1        0.0066
     19 C          61.2412   82.3963    8.6717 C.ar    1  UNL1        0.0785
     20 C          61.5788   81.5567    9.7480 C.ar    1  UNL1        0.0433
     21 C          59.9410   82.2414    7.9823 C.2     1  UNL1        0.3381
     22 O          59.0137   83.0742    8.1729 O.2     1  UNL1       -0.2451
     23 O          59.7291   81.1725    7.1153 O.3     1  UNL1       -0.4771
     24 H          58.8427   81.0572    6.6383 H       1  UNL1        0.2954
     25 C          59.1436   87.0581    8.0902 C.2     1  UNL1        0.2839
     26 O          58.3653   86.0674    8.0937 O.2     1  UNL1       -0.2665
     27 N          60.0505   87.2642    9.1858 N.am    1  UNL1       -0.2766
     28 H          60.4468   88.2214    9.3245 H       1  UNL1        0.1553
     29 C          61.5943   88.3531    6.4412 C.3     1  UNL1        0.0345
     30 C          60.1246   88.5903    6.2476 C.ar    1  UNL1        0.0206
     31 C          59.0704   88.0569    7.0041 C.ar    1  UNL1        0.1946
     32 O          57.9262   88.5710    6.6025 O.2     1  UNL1       -0.4492
     33 C          58.1715   89.3908    5.6131 C.ar    1  UNL1        0.1456
     34 C          57.2335   90.1299    4.9059 C.ar    1  UNL1        0.0375
     35 C          57.6875   90.9498    3.8666 C.ar    1  UNL1        0.0036
     36 C          59.0630   91.0141    3.5408 C.ar    1  UNL1        0.0056
     37 C          60.0064   90.2328    4.2657 C.ar    1  UNL1        0.0328
     38 I          62.0426   90.1580    3.6286 I       1  UNL1       -0.0424
     39 C          59.5157   89.4403    5.3259 C.ar    1  UNL1        0.0390
     40 C          59.4795   91.9029    2.4366 C.ar    1  UNL1        0.0004
     41 C          59.1029   91.6172    1.1136 C.ar    1  UNL1        0.0000
     42 C          59.5169   92.4496    0.0691 C.ar    1  UNL1        0.0000
     43 C          60.3162   93.5647    0.3367 C.ar    1  UNL1        0.0000
     44 C          60.7062   93.8468    1.6489 C.ar    1  UNL1        0.0000
     45 C          60.2943   93.0170    2.6964 C.ar    1  UNL1        0.0000
@<TRIPOS>BOND
     1    29    30    1
     2    30    31   ar
     3    31    25    1
     4    25    26    2
     5    25    27   am
     6    27     1    1
     7     1     2   ar
     8     2     3   ar
     9     3     4   ar
    10     4     7    1
    11     7     8    1
    12     8     9    1
    13     9    10    1
    14    10    13    1
    15    13    14    1
    16    14    15    1
    17    15    16   ar
    18    16    17   ar
    19    17    18   ar
    20    18    19   ar
    21    19    21    1
    22    21    22    2
    23    21    23    1
    24    19    20   ar
    25    10    11    1
    26    11    12    1
    27     4     5   ar
    28     5     6   ar
    29    31    32   ar
    30    32    33   ar
    31    33    34   ar
    32    34    35   ar
    33    35    36   ar
    34    36    40    1
    35    40    41   ar
    36    41    42   ar
    37    42    43   ar
    38    43    44   ar
    39    44    45   ar
    40    36    37   ar
    41    37    38    1
    42    37    39   ar
    43    39    30   ar
    44     6     1   ar
    45    39    33   ar
    46    12     7    1
    47    45    40   ar
    48    20    15   ar
    49    27    28    1
    50    23    24    1
