@<TRIPOS>MOLECULE
*****
 52 58 0 0 0
SMALL
GASTEIGER

@<TRIPOS>ATOM
      1 C          60.3983   86.9938   11.0010 C.ar    1  UNL1        0.0481
      2 C          59.2356   86.4123   11.5431 C.ar    1  UNL1        0.0176
      3 C          59.2143   85.9524   12.8630 C.ar    1  UNL1        0.0382
      4 C          60.3534   86.0801   13.6798 C.ar    1  UNL1        0.1388
      5 C          61.5082   86.6562   13.1449 C.ar    1  UNL1        0.0382
      6 C          61.5360   87.1054   11.8227 C.ar    1  UNL1        0.0176
      7 N          60.3648   88.7416    7.0803 N.pl3   1  UNL1       -0.3041
      8 C          61.4307   89.0711    8.0390 C.3     1  UNL1        0.1122
      9 C          61.6831   87.9202    9.0165 C.3     1  UNL1        0.1122
     10 N          60.4232   87.4798    9.6354 N.pl3   1  UNL1       -0.3041
     11 C          59.1952   87.4400    8.8226 C.3     1  UNL1        0.1122
     12 C          59.4940   87.5834    7.3264 C.3     1  UNL1        0.1122
     13 C          60.0379   90.9687    3.4486 C.ar    1  UNL1        0.0699
     14 C          61.2705   90.4225    3.8419 C.ar    1  UNL1        0.0190
     15 C          61.3790   89.6948    5.0299 C.ar    1  UNL1        0.0160
     16 C          60.2543   89.4899    5.8490 C.ar    1  UNL1        0.0480
     17 C          59.0202   90.0334    5.4514 C.ar    1  UNL1        0.0160
     18 C          58.9126   90.7616    4.2633 C.ar    1  UNL1        0.0190
     19 N          59.8448   92.2873    0.0741 N.ar    1  UNL1       -0.2024
     20 N          59.6494   93.3963    0.7731 N.ar    1  UNL1       -0.1442
     21 C          59.7076   93.0401    2.0750 C.ar    1  UNL1        0.2073
     22 N          59.9321   91.7140    2.2199 N.ar    1  UNL1       -0.2398
     23 C          59.9999   91.2759    0.9470 C.ar    1  UNL1        0.3522
     24 O          60.1449   90.0689    0.6130 O.2     1  UNL1       -0.2444
     25 C          59.7897   92.2040   -1.3888 C.3     1  UNL1        0.1099
     26 C          60.7859   93.1970   -2.0018 C.3     1  UNL1        0.0265
     27 C          57.3483   91.4446   -1.3035 C.3     1  UNL1        0.0021
     28 C          58.3451   92.4610   -1.8609 C.3     1  UNL1        0.0245
     29 O          60.3844   85.6681   15.0231 O.3     1  UNL1       -0.4727
     30 C          61.3650   84.8137   15.6167 C.3     1  UNL1        0.2374
     31 C          61.4091   83.4431   14.9253 C.3     1  UNL1        0.1909
     32 C          62.8074   82.9515   14.6964 C.3     1  UNL1        0.1783
     33 O          62.7606   82.2366   13.5053 O.3     1  UNL1       -0.3266
     34 C          61.5961   82.6703   12.8252 C.3     1  UNL1        0.2315
     35 O          60.8181   83.4959   13.6664 O.3     1  UNL1       -0.3254
     36 C          60.8291   81.4165   12.3663 C.ar    1  UNL1        0.0415
     37 C          59.5025   81.2848   12.8255 C.ar    1  UNL1        0.0022
     38 C          58.7220   80.1852   12.4858 C.ar    1  UNL1        0.0118
     39 C          59.2372   79.1789   11.6757 C.ar    1  UNL1        0.0647
     40 CL         58.2034   77.8096   11.2839 Cl      1  UNL1       -0.0817
     41 C          60.5516   79.2712   11.1920 C.ar    1  UNL1        0.0555
     42 BR         61.2423   77.8594   10.0750 Br      1  UNL1       -0.0473
     43 C          61.3560   80.3852   11.5260 C.ar    1  UNL1        0.0653
     44 CL         63.0032   80.4182   10.8773 Cl      1  UNL1       -0.0819
     45 C          62.0550   83.5158   11.6084 C.3     1  UNL1        0.1893
     46 N          61.0512   83.6182   10.5418 N.ar    1  UNL1       -0.2313
     47 N          59.7611   83.3747   10.6812 N.ar    1  UNL1       -0.1532
     48 C          59.2358   83.4516    9.4455 C.ar    1  UNL1        0.1604
     49 C          57.7852   83.2623    9.1600 C.3     1  UNL1        0.0756
     50 N          60.1595   83.7245    8.4987 N.ar    1  UNL1       -0.2146
     51 C          61.2880   83.8211    9.2295 C.ar    1  UNL1        0.1381
     52 C          62.6396   84.0301    8.6243 C.3     1  UNL1        0.0734
@<TRIPOS>BOND
     1    27    28    1
     2    28    25    1
     3    25    26    1
     4    25    19    1
     5    19    20   ar
     6    20    21   ar
     7    21    22   ar
     8    22    13    1
     9    13    14   ar
    10    14    15   ar
    11    15    16   ar
    12    16     7    1
    13     7     8    1
    14     8     9    1
    15     9    10    1
    16    10     1    1
    17     1     2   ar
    18     2     3   ar
    19     3     4   ar
    20     4    29    1
    21    29    30    1
    22    30    31    1
    23    31    32    1
    24    32    33    1
    25    33    34    1
    26    34    45    1
    27    45    46    1
    28    46    47   ar
    29    47    48   ar
    30    48    49    1
    31    48    50   ar
    32    50    51   ar
    33    51    52    1
    34    34    36    1
    35    36    37   ar
    36    37    38   ar
    37    38    39   ar
    38    39    40    1
    39    39    41   ar
    40    41    42    1
    41    41    43   ar
    42    43    44    1
    43    34    35    1
    44     4     5   ar
    45     5     6   ar
    46    10    11    1
    47    11    12    1
    48    16    17   ar
    49    17    18   ar
    50    22    23   ar
    51    23    24    2
    52    23    19   ar
    53    18    13   ar
    54    12     7    1
    55     6     1   ar
    56    35    31    1
    57    51    46   ar
    58    43    36   ar
@<TRIPOS>MOLECULE
*****
 52 58 0 0 0
SMALL
GASTEIGER

@<TRIPOS>ATOM
      1 C          60.4838   86.3435   10.4256 C.ar    1  UNL1        0.0481
      2 C          61.6605   86.2073   11.1876 C.ar    1  UNL1        0.0176
      3 C          61.6376   85.5699   12.4315 C.ar    1  UNL1        0.0382
      4 C          60.4370   85.0362   12.9360 C.ar    1  UNL1        0.1388
      5 C          59.2680   85.1701   12.1827 C.ar    1  UNL1        0.0382
      6 C          59.2858   85.8172   10.9450 C.ar    1  UNL1        0.0176
      7 N          60.3884   88.5507    6.7450 N.pl3   1  UNL1       -0.3041
      8 C          61.3554   88.8927    7.7994 C.3     1  UNL1        0.1122
      9 C          61.7181   87.6706    8.6472 C.3     1  UNL1        0.1122
     10 N          60.5035   86.9963    9.1313 N.pl3   1  UNL1       -0.3041
     11 C          59.3300   86.9000    8.2458 C.3     1  UNL1        0.1122
     12 C          59.6734   87.2676    6.7983 C.3     1  UNL1        0.1122
     13 C          59.9258   91.1284    3.3689 C.ar    1  UNL1        0.0699
     14 C          58.8555   90.9101    4.2517 C.ar    1  UNL1        0.0190
     15 C          59.0052   90.0665    5.3556 C.ar    1  UNL1        0.0160
     16 C          60.2323   89.4271    5.6066 C.ar    1  UNL1        0.0480
     17 C          61.3041   89.6505    4.7245 C.ar    1  UNL1        0.0160
     18 C          61.1535   90.4939    3.6203 C.ar    1  UNL1        0.0190
     19 N          59.3635   92.8085    0.2028 N.ar    1  UNL1       -0.2024
     20 N          59.6667   93.8455    0.9705 N.ar    1  UNL1       -0.1442
     21 C          59.9132   93.3475    2.2019 C.ar    1  UNL1        0.2073
     22 N          59.7659   92.0032    2.2352 N.ar    1  UNL1       -0.2398
     23 C          59.4101   91.7046    0.9698 C.ar    1  UNL1        0.3522
     24 O          59.1146   90.5481    0.5641 O.2     1  UNL1       -0.2444
     25 C          58.9543   92.9034   -1.2020 C.3     1  UNL1        0.1099
     26 C          59.9572   93.7691   -1.9761 C.3     1  UNL1        0.0265
     27 C          56.4768   92.3835   -1.5711 C.3     1  UNL1        0.0021
     28 C          57.5200   93.4624   -1.2795 C.3     1  UNL1        0.0245
     29 O          60.3554   84.3559   14.1629 O.3     1  UNL1       -0.4727
     30 C          60.5710   82.9568   14.3631 C.3     1  UNL1        0.2374
     31 C          59.9687   82.1260   13.2206 C.3     1  UNL1        0.1909
     32 C          59.8348   80.6727   13.5659 C.3     1  UNL1        0.1783
     33 O          60.0478   79.9860   12.3763 O.3     1  UNL1       -0.3266
     34 C          60.7358   80.8787   11.5181 C.3     1  UNL1        0.2315
     35 O          60.7753   82.1705   12.0873 O.3     1  UNL1       -0.3254
     36 C          60.0185   80.8627   10.1557 C.ar    1  UNL1        0.0415
     37 C          58.8848   80.0312   10.0489 C.ar    1  UNL1        0.0022
     38 C          58.1692   79.9276    8.8611 C.ar    1  UNL1        0.0118
     39 C          58.5589   80.6503    7.7385 C.ar    1  UNL1        0.0647
     40 CL         57.6168   80.4746    6.2625 Cl      1  UNL1       -0.0817
     41 C          59.6788   81.4942    7.8011 C.ar    1  UNL1        0.0555
     42 BR         60.2001   82.4806    6.2284 Br      1  UNL1       -0.0473
     43 C          60.4142   81.6125    9.0031 C.ar    1  UNL1        0.0653
     44 CL         61.8155   82.6948    8.9918 Cl      1  UNL1       -0.0819
     45 C          62.1932   80.3652   11.3834 C.3     1  UNL1        0.1893
     46 N          63.0434   80.6759   12.5395 N.ar    1  UNL1       -0.2313
     47 N          62.9288   80.1358   13.7389 N.ar    1  UNL1       -0.1532
     48 C          63.8012   80.7928   14.5238 C.ar    1  UNL1        0.1604
     49 C          64.0059   80.4735   15.9652 C.3     1  UNL1        0.0756
     50 N          64.4722   81.7625   13.8655 N.ar    1  UNL1       -0.2146
     51 C          63.9659   81.6565   12.6207 C.ar    1  UNL1        0.1381
     52 C          64.3269   82.5885   11.5081 C.3     1  UNL1        0.0734
@<TRIPOS>BOND
     1    27    28    1
     2    28    25    1
     3    25    26    1
     4    25    19    1
     5    19    20   ar
     6    20    21   ar
     7    21    22   ar
     8    22    13    1
     9    13    14   ar
    10    14    15   ar
    11    15    16   ar
    12    16     7    1
    13     7     8    1
    14     8     9    1
    15     9    10    1
    16    10     1    1
    17     1     2   ar
    18     2     3   ar
    19     3     4   ar
    20     4    29    1
    21    29    30    1
    22    30    31    1
    23    31    32    1
    24    32    33    1
    25    33    34    1
    26    34    45    1
    27    45    46    1
    28    46    47   ar
    29    47    48   ar
    30    48    49    1
    31    48    50   ar
    32    50    51   ar
    33    51    52    1
    34    34    36    1
    35    36    37   ar
    36    37    38   ar
    37    38    39   ar
    38    39    40    1
    39    39    41   ar
    40    41    42    1
    41    41    43   ar
    42    43    44    1
    43    34    35    1
    44     4     5   ar
    45     5     6   ar
    46    10    11    1
    47    11    12    1
    48    16    17   ar
    49    17    18   ar
    50    22    23   ar
    51    23    24    2
    52    23    19   ar
    53    18    13   ar
    54    12     7    1
    55     6     1   ar
    56    35    31    1
    57    51    46   ar
    58    43    36   ar
@<TRIPOS>MOLECULE
*****
 52 58 0 0 0
SMALL
GASTEIGER

@<TRIPOS>ATOM
      1 C          60.3826   85.9802   11.1939 C.ar    1  UNL1        0.0481
      2 C          61.6747   85.4792   11.4461 C.ar    1  UNL1        0.0176
      3 C          61.9321   84.7019   12.5790 C.ar    1  UNL1        0.0382
      4 C          60.8962   84.3914   13.4798 C.ar    1  UNL1        0.1388
      5 C          59.6137   84.8871   13.2326 C.ar    1  UNL1        0.0382
      6 C          59.3564   85.6741   12.1078 C.ar    1  UNL1        0.0176
      7 N          59.8878   88.2605    7.5907 N.pl3   1  UNL1       -0.3041
      8 C          59.8050   86.7920    7.5660 C.3     1  UNL1        0.1122
      9 C          59.3142   86.2341    8.9045 C.3     1  UNL1        0.1122
     10 N          60.1083   86.7799   10.0162 N.pl3   1  UNL1       -0.3041
     11 C          60.5417   88.1872    9.9708 C.3     1  UNL1        0.1122
     12 C          59.8169   88.9742    8.8736 C.3     1  UNL1        0.1122
     13 C          59.9969   90.4482    3.9221 C.ar    1  UNL1        0.0699
     14 C          61.1384   89.7730    4.3843 C.ar    1  UNL1        0.0190
     15 C          61.1043   89.0580    5.5844 C.ar    1  UNL1        0.0160
     16 C          59.9244   88.9954    6.3470 C.ar    1  UNL1        0.0480
     17 C          58.7813   89.6680    5.8805 C.ar    1  UNL1        0.0160
     18 C          58.8163   90.3833    4.6804 C.ar    1  UNL1        0.0190
     19 N          60.7150   92.3467    0.9150 N.ar    1  UNL1       -0.2024
     20 N          59.4195   92.1214    0.7489 N.ar    1  UNL1       -0.1442
     21 C          59.0153   91.4154    1.8275 C.ar    1  UNL1        0.2073
     22 N          60.0377   91.1796    2.6813 N.ar    1  UNL1       -0.2398
     23 C          61.0860   91.7667    2.0704 C.ar    1  UNL1        0.3522
     24 O          62.2709   91.7399    2.5002 O.2     1  UNL1       -0.2444
     25 C          61.5751   93.0221   -0.0618 C.3     1  UNL1        0.1099
     26 C          60.7133   93.8432   -1.0300 C.3     1  UNL1        0.0265
     27 C          63.4331   92.6018   -1.7693 C.3     1  UNL1        0.0021
     28 C          62.4372   91.9746   -0.7936 C.3     1  UNL1        0.0245
     29 O          61.0839   83.5883   14.6176 O.3     1  UNL1       -0.4727
     30 C          61.3959   82.1931   14.6184 C.3     1  UNL1        0.2374
     31 C          60.7016   81.4611   13.4605 C.3     1  UNL1        0.1909
     32 C          60.8458   79.9707   13.5445 C.3     1  UNL1        0.1783
     33 O          60.9125   79.5281   12.2286 O.3     1  UNL1       -0.3266
     34 C          61.2825   80.6511   11.4483 C.3     1  UNL1        0.2315
     35 O          61.2517   81.8238   12.2346 O.3     1  UNL1       -0.3254
     36 C          60.3178   80.7258   10.2505 C.ar    1  UNL1        0.0415
     37 C          60.5841   79.8596    9.1704 C.ar    1  UNL1        0.0022
     38 C          59.7872   79.8530    8.0309 C.ar    1  UNL1        0.0118
     39 C          58.6964   80.7098    7.9291 C.ar    1  UNL1        0.0647
     40 CL         57.7277   80.6593    6.4607 Cl      1  UNL1       -0.0817
     41 C          58.3914   81.5858    8.9826 C.ar    1  UNL1        0.0555
     42 BR         56.8764   82.7665    8.8130 Br      1  UNL1       -0.0473
     43 C          59.1905   81.6012   10.1491 C.ar    1  UNL1        0.0653
     44 CL         58.7373   82.7410   11.4260 Cl      1  UNL1       -0.0819
     45 C          62.7415   80.4269   10.9719 C.3     1  UNL1        0.1893
     46 N          63.7017   81.3940   11.5183 N.ar    1  UNL1       -0.2313
     47 N          64.1107   81.4387   12.7729 N.ar    1  UNL1       -0.1532
     48 C          64.8688   82.5449   12.8742 C.ar    1  UNL1        0.1604
     49 C          65.5502   82.9570   14.1341 C.3     1  UNL1        0.0756
     50 N          64.9505   83.2331   11.7151 N.ar    1  UNL1       -0.2146
     51 C          64.2022   82.4763   10.8879 C.ar    1  UNL1        0.1381
     52 C          63.8982   82.8629    9.4755 C.3     1  UNL1        0.0734
@<TRIPOS>BOND
     1    27    28    1
     2    28    25    1
     3    25    26    1
     4    25    19    1
     5    19    20   ar
     6    20    21   ar
     7    21    22   ar
     8    22    13    1
     9    13    14   ar
    10    14    15   ar
    11    15    16   ar
    12    16     7    1
    13     7     8    1
    14     8     9    1
    15     9    10    1
    16    10     1    1
    17     1     2   ar
    18     2     3   ar
    19     3     4   ar
    20     4    29    1
    21    29    30    1
    22    30    31    1
    23    31    32    1
    24    32    33    1
    25    33    34    1
    26    34    45    1
    27    45    46    1
    28    46    47   ar
    29    47    48   ar
    30    48    49    1
    31    48    50   ar
    32    50    51   ar
    33    51    52    1
    34    34    36    1
    35    36    37   ar
    36    37    38   ar
    37    38    39   ar
    38    39    40    1
    39    39    41   ar
    40    41    42    1
    41    41    43   ar
    42    43    44    1
    43    34    35    1
    44     4     5   ar
    45     5     6   ar
    46    10    11    1
    47    11    12    1
    48    16    17   ar
    49    17    18   ar
    50    22    23   ar
    51    23    24    2
    52    23    19   ar
    53    18    13   ar
    54    12     7    1
    55     6     1   ar
    56    35    31    1
    57    51    46   ar
    58    43    36   ar
@<TRIPOS>MOLECULE
*****
 52 58 0 0 0
SMALL
GASTEIGER

@<TRIPOS>ATOM
      1 C          59.8108   84.6569    9.0898 C.ar    1  UNL1        0.0481
      2 C          58.4562   84.4877    9.4368 C.ar    1  UNL1        0.0176
      3 C          57.7253   83.3974    8.9562 C.ar    1  UNL1        0.0382
      4 C          58.3388   82.4379    8.1292 C.ar    1  UNL1        0.1388
      5 C          59.6822   82.6031    7.7830 C.ar    1  UNL1        0.0382
      6 C          60.4114   83.6981    8.2520 C.ar    1  UNL1        0.0176
      7 N          62.2821   87.7557   10.7384 N.pl3   1  UNL1       -0.3041
      8 C          62.7568   86.9379    9.6116 C.3     1  UNL1        0.1122
      9 C          61.5935   86.4335    8.7537 C.3     1  UNL1        0.1122
     10 N          60.5756   85.7813    9.5922 N.pl3   1  UNL1       -0.3041
     11 C          60.2643   86.3435   10.9178 C.3     1  UNL1        0.1122
     12 C          60.8572   87.7450   11.0989 C.3     1  UNL1        0.1122
     13 C          65.0035   90.3833   12.7249 C.ar    1  UNL1        0.0699
     14 C          64.8313   90.4540   11.3328 C.ar    1  UNL1        0.0190
     15 C          63.9424   89.5945   10.6819 C.ar    1  UNL1        0.0160
     16 C          63.1987   88.6486   11.4098 C.ar    1  UNL1        0.0480
     17 C          63.3688   88.5824   12.8038 C.ar    1  UNL1        0.0160
     18 C          64.2584   89.4420   13.4541 C.ar    1  UNL1        0.0190
     19 N          67.4294   92.1389   14.7732 N.ar    1  UNL1       -0.2024
     20 N          67.1289   93.0871   13.8972 N.ar    1  UNL1       -0.1442
     21 C          66.2081   92.5560   13.0634 C.ar    1  UNL1        0.2073
     22 N          65.9183   91.2758   13.3903 N.ar    1  UNL1       -0.2398
     23 C          66.7106   91.0471   14.4565 C.ar    1  UNL1        0.3522
     24 O          66.8026   89.9413   15.0550 O.2     1  UNL1       -0.2444
     25 C          68.4470   92.2652   15.8213 C.3     1  UNL1        0.1099
     26 C          68.9995   93.6966   15.8368 C.3     1  UNL1        0.0265
     27 C          69.8544   90.9897   14.1076 C.3     1  UNL1        0.0021
     28 C          69.5523   91.2162   15.5890 C.3     1  UNL1        0.0245
     29 O          57.6678   81.3035    7.6416 O.3     1  UNL1       -0.4727
     30 C          57.5065   80.0620    8.3319 C.3     1  UNL1        0.2374
     31 C          58.5769   79.8794    9.4179 C.3     1  UNL1        0.1909
     32 C          58.1192   79.0012   10.5442 C.3     1  UNL1        0.1783
     33 O          58.7317   79.5080   11.6844 O.3     1  UNL1       -0.3266
     34 C          59.1060   80.8394   11.3778 C.3     1  UNL1        0.2315
     35 O          58.9125   81.0969   10.0028 O.3     1  UNL1       -0.3254
     36 C          60.5740   81.0220   11.8050 C.ar    1  UNL1        0.0415
     37 C          61.3995   81.7566   10.9292 C.ar    1  UNL1        0.0022
     38 C          62.7452   81.9702   11.2073 C.ar    1  UNL1        0.0118
     39 C          63.3143   81.4592   12.3689 C.ar    1  UNL1        0.0647
     40 CL         65.0233   81.7581   12.6641 Cl      1  UNL1       -0.0817
     41 C          62.5284   80.7258   13.2716 C.ar    1  UNL1        0.0555
     42 BR         63.3441   80.0244   14.8718 Br      1  UNL1       -0.0473
     43 C          61.1578   80.5036   13.0040 C.ar    1  UNL1        0.0653
     44 CL         60.2426   79.5639   14.1933 Cl      1  UNL1       -0.0819
     45 C          58.1732   81.7824   12.1820 C.3     1  UNL1        0.1893
     46 N          58.8656   82.9201   12.7999 N.ar    1  UNL1       -0.2313
     47 N          60.0632   82.8760   13.3540 N.ar    1  UNL1       -0.1532
     48 C          60.2561   84.0845   13.9117 C.ar    1  UNL1        0.1604
     49 C          61.5070   84.4650   14.6272 C.3     1  UNL1        0.0756
     50 N          59.2020   84.9125   13.7473 N.ar    1  UNL1       -0.2146
     51 C          58.3488   84.1419   13.0437 C.ar    1  UNL1        0.1381
     52 C          56.9659   84.5769   12.6761 C.3     1  UNL1        0.0734
@<TRIPOS>BOND
     1    27    28    1
     2    28    25    1
     3    25    26    1
     4    25    19    1
     5    19    20   ar
     6    20    21   ar
     7    21    22   ar
     8    22    13    1
     9    13    14   ar
    10    14    15   ar
    11    15    16   ar
    12    16     7    1
    13     7     8    1
    14     8     9    1
    15     9    10    1
    16    10     1    1
    17     1     2   ar
    18     2     3   ar
    19     3     4   ar
    20     4    29    1
    21    29    30    1
    22    30    31    1
    23    31    32    1
    24    32    33    1
    25    33    34    1
    26    34    45    1
    27    45    46    1
    28    46    47   ar
    29    47    48   ar
    30    48    49    1
    31    48    50   ar
    32    50    51   ar
    33    51    52    1
    34    34    36    1
    35    36    37   ar
    36    37    38   ar
    37    38    39   ar
    38    39    40    1
    39    39    41   ar
    40    41    42    1
    41    41    43   ar
    42    43    44    1
    43    34    35    1
    44     4     5   ar
    45     5     6   ar
    46    10    11    1
    47    11    12    1
    48    16    17   ar
    49    17    18   ar
    50    22    23   ar
    51    23    24    2
    52    23    19   ar
    53    18    13   ar
    54    12     7    1
    55     6     1   ar
    56    35    31    1
    57    51    46   ar
    58    43    36   ar
@<TRIPOS>MOLECULE
*****
 52 58 0 0 0
SMALL
GASTEIGER

@<TRIPOS>ATOM
      1 C          60.6512   86.5188   10.8780 C.ar    1  UNL1        0.0481
      2 C          61.9838   86.1986   11.2030 C.ar    1  UNL1        0.0176
      3 C          62.2907   85.5416   12.3981 C.ar    1  UNL1        0.0382
      4 C          61.2670   85.1722   13.2906 C.ar    1  UNL1        0.1388
      5 C          59.9443   85.4887   12.9713 C.ar    1  UNL1        0.0382
      6 C          59.6361   86.1559   11.7835 C.ar    1  UNL1        0.0176
      7 N          60.0313   88.5756    7.1614 N.pl3   1  UNL1       -0.3041
      8 C          60.5858   87.2132    7.1810 C.3     1  UNL1        0.1122
      9 C          60.1003   86.4262    8.4011 C.3     1  UNL1        0.1122
     10 N          60.3265   87.1927    9.6362 N.pl3   1  UNL1       -0.3041
     11 C          60.1214   88.6516    9.6280 C.3     1  UNL1        0.1122
     12 C          59.3885   89.1195    8.3661 C.3     1  UNL1        0.1122
     13 C          60.0020   90.7795    3.5010 C.ar    1  UNL1        0.0699
     14 C          58.8537   90.7206    4.3075 C.ar    1  UNL1        0.0190
     15 C          58.8617   89.9993    5.5043 C.ar    1  UNL1        0.0160
     16 C          60.0218   89.3258    5.9264 C.ar    1  UNL1        0.0480
     17 C          61.1718   89.3897    5.1202 C.ar    1  UNL1        0.0160
     18 C          61.1630   90.1108    3.9231 C.ar    1  UNL1        0.0190
     19 N          60.0522   92.1084    0.1255 N.ar    1  UNL1       -0.2024
     20 N          59.8242   93.2181    0.8134 N.ar    1  UNL1       -0.1442
     21 C          59.7904   92.8581    2.1151 C.ar    1  UNL1        0.2073
     22 N          59.9882   91.5289    2.2705 N.ar    1  UNL1       -0.2398
     23 C          60.1358   91.0930    1.0036 C.ar    1  UNL1        0.3522
     24 O          60.2879   89.8850    0.6762 O.2     1  UNL1       -0.2444
     25 C          60.0944   92.0292   -1.3381 C.3     1  UNL1        0.1099
     26 C          61.2339   92.9075   -1.8714 C.3     1  UNL1        0.0265
     27 C          57.5978   91.4938   -1.4958 C.3     1  UNL1        0.0021
     28 C          58.7240   92.4405   -1.9115 C.3     1  UNL1        0.0245
     29 O          61.5075   84.4814   14.4906 O.3     1  UNL1       -0.4727
     30 C          62.3313   83.3227   14.6417 C.3     1  UNL1        0.2374
     31 C          61.6114   82.0544   14.1604 C.3     1  UNL1        0.1909
     32 C          62.2946   80.7945   14.6020 C.3     1  UNL1        0.1783
     33 O          62.0897   79.8801   13.5754 O.3     1  UNL1       -0.3266
     34 C          61.7662   80.6391   12.4238 C.3     1  UNL1        0.2315
     35 O          61.5737   81.9946   12.7705 O.3     1  UNL1       -0.3254
     36 C          60.5093   80.0144   11.7907 C.ar    1  UNL1        0.0415
     37 C          60.1012   78.7642   12.2992 C.ar    1  UNL1        0.0022
     38 C          58.9891   78.1014   11.7916 C.ar    1  UNL1        0.0118
     39 C          58.2448   78.6627   10.7595 C.ar    1  UNL1        0.0647
     40 CL         56.8507   77.7747   10.1553 Cl      1  UNL1       -0.0817
     41 C          58.6121   79.9081   10.2261 C.ar    1  UNL1        0.0555
     42 BR         57.5656   80.6609    8.7922 Br      1  UNL1       -0.0473
     43 C          59.7384   80.5955   10.7346 C.ar    1  UNL1        0.0653
     44 CL         60.1332   82.1575   10.0001 Cl      1  UNL1       -0.0819
     45 C          62.9750   80.5548   11.4556 C.3     1  UNL1        0.1893
     46 N          63.2553   81.8073   10.7425 N.ar    1  UNL1       -0.2313
     47 N          62.7638   82.1414    9.5635 N.ar    1  UNL1       -0.1532
     48 C          63.3758   83.2889    9.2207 C.ar    1  UNL1        0.1604
     49 C          63.0872   84.0240    7.9567 C.3     1  UNL1        0.0756
     50 N          64.2695   83.7032   10.1446 N.ar    1  UNL1       -0.2146
     51 C          64.1638   82.7435   11.0852 C.ar    1  UNL1        0.1381
     52 C          65.0296   82.6927   12.3037 C.3     1  UNL1        0.0734
@<TRIPOS>BOND
     1    27    28    1
     2    28    25    1
     3    25    26    1
     4    25    19    1
     5    19    20   ar
     6    20    21   ar
     7    21    22   ar
     8    22    13    1
     9    13    14   ar
    10    14    15   ar
    11    15    16   ar
    12    16     7    1
    13     7     8    1
    14     8     9    1
    15     9    10    1
    16    10     1    1
    17     1     2   ar
    18     2     3   ar
    19     3     4   ar
    20     4    29    1
    21    29    30    1
    22    30    31    1
    23    31    32    1
    24    32    33    1
    25    33    34    1
    26    34    45    1
    27    45    46    1
    28    46    47   ar
    29    47    48   ar
    30    48    49    1
    31    48    50   ar
    32    50    51   ar
    33    51    52    1
    34    34    36    1
    35    36    37   ar
    36    37    38   ar
    37    38    39   ar
    38    39    40    1
    39    39    41   ar
    40    41    42    1
    41    41    43   ar
    42    43    44    1
    43    34    35    1
    44     4     5   ar
    45     5     6   ar
    46    10    11    1
    47    11    12    1
    48    16    17   ar
    49    17    18   ar
    50    22    23   ar
    51    23    24    2
    52    23    19   ar
    53    18    13   ar
    54    12     7    1
    55     6     1   ar
    56    35    31    1
    57    51    46   ar
    58    43    36   ar
