@<TRIPOS>MOLECULE
*****
 49 54 0 0 0
SMALL
GASTEIGER

@<TRIPOS>ATOM
      1 O         -24.0030   51.2443  -11.6683 O.2     1  UNL1       -0.2701
      2 C         -23.8845   51.6442  -10.4777 C.2     1  UNL1        0.2483
      3 N         -22.7516   52.4422  -10.1021 N.am    1  UNL1       -0.2945
      4 H         -22.7968   52.9846   -9.2101 H       1  UNL1        0.1501
      5 C         -24.9363   51.3114   -9.4918 C.ar    1  UNL1        0.0808
      6 C         -26.2877   51.3893   -9.8645 C.ar    1  UNL1        0.0080
      7 C         -27.2969   51.0866   -8.9469 C.ar    1  UNL1        0.0148
      8 C         -26.9767   50.6920   -7.6369 C.ar    1  UNL1        0.0502
      9 C         -25.6228   50.5924   -7.2712 C.ar    1  UNL1        0.0443
     10 C         -24.6110   50.8949   -8.1874 C.ar    1  UNL1        0.1457
     11 F         -23.3190   50.7250   -7.8107 F       1  UNL1       -0.2040
     12 N         -28.0201   50.3749   -6.6899 N.pl3   1  UNL1       -0.3040
     13 C         -28.8318   49.1588   -6.8639 C.3     1  UNL1        0.1122
     14 C         -29.2224   48.5619   -5.5042 C.3     1  UNL1        0.1122
     15 N         -29.6642   49.5969   -4.5575 N.pl3   1  UNL1       -0.3041
     16 C         -29.7055   51.0009   -4.9813 C.3     1  UNL1        0.1122
     17 C         -28.3851   51.3647   -5.6613 C.3     1  UNL1        0.1122
     18 C         -29.9637   49.2334   -3.1968 C.ar    1  UNL1        0.0479
     19 C         -31.1066   49.7435   -2.5609 C.ar    1  UNL1        0.0145
     20 C         -31.3921   49.4024   -1.2359 C.ar    1  UNL1        0.0051
     21 C         -30.5476   48.5314   -0.5266 C.ar    1  UNL1        0.0715
     22 C         -29.3872   48.0471   -1.1542 C.ar    1  UNL1        0.0051
     23 C         -29.1018   48.3897   -2.4790 C.ar    1  UNL1        0.0145
     24 C         -30.8286   48.2028    0.9180 C.3     1  UNL1        0.4186
     25 F         -29.6477   48.0107    1.6142 F       1  UNL1       -0.1659
     26 F         -31.5264   49.2318    1.5265 F       1  UNL1       -0.1659
     27 F         -31.5832   47.0465    0.9832 F       1  UNL1       -0.1659
     28 C         -21.6171   52.6568  -11.0056 C.3     1  UNL1        0.1535
     29 C         -20.7962   53.8230  -10.5250 C.2     1  UNL1        0.2443
     30 O         -20.0046   54.3892  -11.3266 O.2     1  UNL1       -0.2730
     31 N         -20.9427   54.3085   -9.1796 N.am    1  UNL1       -0.2825
     32 H         -21.7847   54.0069   -8.6390 H       1  UNL1        0.1549
     33 C         -20.0621   55.2667   -8.5690 C.ar    1  UNL1        0.0535
     34 C         -19.1339   54.8897   -7.5835 C.ar    1  UNL1        0.0353
     35 C         -18.3167   55.8611   -6.9996 C.ar    1  UNL1        0.1002
     36 N         -18.4303   57.1631   -7.3727 N.ar    1  UNL1       -0.2422
     37 C         -19.3323   57.5590   -8.3093 C.ar    1  UNL1        0.1002
     38 C         -20.1694   56.6201   -8.9169 C.ar    1  UNL1        0.0353
     39 C         -20.7410   51.3949  -11.1016 C.3     1  UNL1        0.0569
     40 C         -19.2824   51.7359  -10.9883 C.ar    1  UNL1       -0.0017
     41 C         -18.4189   52.0218  -12.0418 C.ar    1  UNL1        0.0681
     42 N         -17.1576   52.1938  -11.5855 N.ar    1  UNL1       -0.3523
     43 C         -17.2150   52.0101  -10.2551 C.ar    1  UNL1        0.0563
     44 C         -16.1559   52.0606   -9.3499 C.ar    1  UNL1        0.0170
     45 C         -16.4369   51.8126   -7.9941 C.ar    1  UNL1        0.0015
     46 C         -17.7548   51.5220   -7.5780 C.ar    1  UNL1        0.0001
     47 C         -18.8042   51.4765   -8.5135 C.ar    1  UNL1        0.0012
     48 C         -18.4954   51.7270   -9.8518 C.ar    1  UNL1        0.0131
     49 H         -16.3102   52.4080  -12.1569 H       1  UNL1        0.1660
@<TRIPOS>BOND
     1     1     2    2
     2     2     3   am
     3     3    28    1
     4    28    39    1
     5    39    40    1
     6    40    41   ar
     7    41    42   ar
     8    42    43   ar
     9    43    44   ar
    10    44    45   ar
    11    45    46   ar
    12    46    47   ar
    13    47    48   ar
    14    28    29    1
    15    29    30    2
    16    29    31   am
    17    31    33    1
    18    33    34   ar
    19    34    35   ar
    20    35    36   ar
    21    36    37   ar
    22    37    38   ar
    23     2     5    1
    24     5     6   ar
    25     6     7   ar
    26     7     8   ar
    27     8    12    1
    28    12    13    1
    29    13    14    1
    30    14    15    1
    31    15    18    1
    32    18    19   ar
    33    19    20   ar
    34    20    21   ar
    35    21    24    1
    36    24    25    1
    37    24    26    1
    38    24    27    1
    39    21    22   ar
    40    22    23   ar
    41    15    16    1
    42    16    17    1
    43     8     9   ar
    44     9    10   ar
    45    10    11    1
    46    48    40   ar
    47    38    33   ar
    48    10     5   ar
    49    48    43   ar
    50    17    12    1
    51    23    18   ar
    52     3     4    1
    53    42    49    1
    54    31    32    1
@<TRIPOS>MOLECULE
*****
 49 54 0 0 0
SMALL
GASTEIGER

@<TRIPOS>ATOM
      1 O         -27.6085   48.1639  -10.2414 O.2     1  UNL1       -0.2701
      2 C         -26.9776   48.4924   -9.1994 C.2     1  UNL1        0.2483
      3 N         -27.3073   47.8812   -7.9428 N.am    1  UNL1       -0.2945
      4 H         -26.6206   47.9511   -7.1583 H       1  UNL1        0.1501
      5 C         -25.8813   49.4813   -9.2957 C.ar    1  UNL1        0.0808
      6 C         -25.6290   50.1221  -10.5192 C.ar    1  UNL1        0.0080
      7 C         -24.5939   51.0535  -10.6338 C.ar    1  UNL1        0.0148
      8 C         -23.7918   51.3704   -9.5247 C.ar    1  UNL1        0.0502
      9 C         -24.0595   50.7451   -8.2942 C.ar    1  UNL1        0.0443
     10 C         -25.0944   49.8126   -8.1768 C.ar    1  UNL1        0.1457
     11 F         -25.3568   49.2807   -6.9568 F       1  UNL1       -0.2040
     12 N         -22.7247   52.3366   -9.6425 N.pl3   1  UNL1       -0.3040
     13 C         -22.7309   53.3145  -10.7432 C.3     1  UNL1        0.1122
     14 C         -22.1255   54.6514  -10.2916 C.3     1  UNL1        0.1122
     15 N         -20.9000   54.4594   -9.5018 N.pl3   1  UNL1       -0.3041
     16 C         -20.3977   53.1031   -9.2560 C.3     1  UNL1        0.1122
     17 C         -21.5449   52.2178   -8.7678 C.3     1  UNL1        0.1122
     18 C         -20.2569   55.5989   -8.9006 C.ar    1  UNL1        0.0479
     19 C         -19.5291   55.4563   -7.7087 C.ar    1  UNL1        0.0145
     20 C         -18.9152   56.5634   -7.1165 C.ar    1  UNL1        0.0051
     21 C         -19.0044   57.8321   -7.7143 C.ar    1  UNL1        0.0715
     22 C         -19.7599   57.9789   -8.8902 C.ar    1  UNL1        0.0051
     23 C         -20.3745   56.8713   -9.4812 C.ar    1  UNL1        0.0145
     24 C         -18.3841   59.0352   -7.0496 C.3     1  UNL1        0.4186
     25 F         -18.0229   59.9824   -7.9922 F       1  UNL1       -0.1659
     26 F         -19.2766   59.6210   -6.1684 F       1  UNL1       -0.1659
     27 F         -17.2573   58.6400   -6.3534 F       1  UNL1       -0.1659
     28 C         -28.4841   47.0219   -7.7805 C.3     1  UNL1        0.1535
     29 C         -28.2918   46.1125   -6.5969 C.2     1  UNL1        0.2443
     30 O         -29.1143   45.1772   -6.4005 O.2     1  UNL1       -0.2730
     31 N         -27.1623   46.2856   -5.7243 N.am    1  UNL1       -0.2825
     32 H         -26.3680   46.8747   -6.0624 H       1  UNL1        0.1549
     33 C         -27.0086   45.6133   -4.4631 C.ar    1  UNL1        0.0535
     34 C         -27.8940   45.8400   -3.3956 C.ar    1  UNL1        0.0353
     35 C         -27.6892   45.1831   -2.1796 C.ar    1  UNL1        0.1002
     36 N         -26.6320   44.3424   -2.0272 N.ar    1  UNL1       -0.2422
     37 C         -25.7492   44.1191   -3.0362 C.ar    1  UNL1        0.1002
     38 C         -25.9166   44.7567   -4.2678 C.ar    1  UNL1        0.0353
     39 C         -29.7613   47.8620   -7.6022 C.3     1  UNL1        0.0569
     40 C         -29.4471   49.3308   -7.5790 C.ar    1  UNL1       -0.0017
     41 C         -29.7860   50.2614   -8.5568 C.ar    1  UNL1        0.0681
     42 N         -29.2666   51.4732   -8.2562 N.ar    1  UNL1       -0.3523
     43 C         -28.5953   51.3142   -7.1024 C.ar    1  UNL1        0.0563
     44 C         -27.8689   52.2812   -6.4088 C.ar    1  UNL1        0.0170
     45 C         -27.2183   51.8912   -5.2241 C.ar    1  UNL1        0.0015
     46 C         -27.3062   50.5586   -4.7649 C.ar    1  UNL1        0.0001
     47 C         -28.0454   49.6033   -5.4857 C.ar    1  UNL1        0.0012
     48 C         -28.6804   50.0193   -6.6574 C.ar    1  UNL1        0.0131
     49 H         -29.3562   52.3484   -8.8186 H       1  UNL1        0.1660
@<TRIPOS>BOND
     1     1     2    2
     2     2     3   am
     3     3    28    1
     4    28    39    1
     5    39    40    1
     6    40    41   ar
     7    41    42   ar
     8    42    43   ar
     9    43    44   ar
    10    44    45   ar
    11    45    46   ar
    12    46    47   ar
    13    47    48   ar
    14    28    29    1
    15    29    30    2
    16    29    31   am
    17    31    33    1
    18    33    34   ar
    19    34    35   ar
    20    35    36   ar
    21    36    37   ar
    22    37    38   ar
    23     2     5    1
    24     5     6   ar
    25     6     7   ar
    26     7     8   ar
    27     8    12    1
    28    12    13    1
    29    13    14    1
    30    14    15    1
    31    15    18    1
    32    18    19   ar
    33    19    20   ar
    34    20    21   ar
    35    21    24    1
    36    24    25    1
    37    24    26    1
    38    24    27    1
    39    21    22   ar
    40    22    23   ar
    41    15    16    1
    42    16    17    1
    43     8     9   ar
    44     9    10   ar
    45    10    11    1
    46    48    40   ar
    47    38    33   ar
    48    10     5   ar
    49    48    43   ar
    50    17    12    1
    51    23    18   ar
    52     3     4    1
    53    42    49    1
    54    31    32    1
@<TRIPOS>MOLECULE
*****
 49 54 0 0 0
SMALL
GASTEIGER

@<TRIPOS>ATOM
      1 O         -28.7110   49.4019   -9.5024 O.2     1  UNL1       -0.2701
      2 C         -27.5722   48.8623   -9.5623 C.2     1  UNL1        0.2483
      3 N         -27.4635   47.4350   -9.6736 N.am    1  UNL1       -0.2945
      4 H         -26.5552   47.0268   -9.9902 H       1  UNL1        0.1501
      5 C         -26.3631   49.7150   -9.5508 C.ar    1  UNL1        0.0808
      6 C         -25.9829   50.3973  -10.7174 C.ar    1  UNL1        0.0080
      7 C         -24.8406   51.2017  -10.7303 C.ar    1  UNL1        0.0148
      8 C         -24.0562   51.3474   -9.5737 C.ar    1  UNL1        0.0502
      9 C         -24.4502   50.6819   -8.3996 C.ar    1  UNL1        0.0443
     10 C         -25.5927   49.8762   -8.3840 C.ar    1  UNL1        0.1457
     11 F         -25.9698   49.3033   -7.2138 F       1  UNL1       -0.2040
     12 N         -22.8779   52.1825   -9.5862 N.pl3   1  UNL1       -0.3040
     13 C         -22.5975   53.0482  -10.7438 C.3     1  UNL1        0.1122
     14 C         -21.9173   54.3516  -10.3009 C.3     1  UNL1        0.1122
     15 N         -20.8611   54.1087   -9.3070 N.pl3   1  UNL1       -0.3041
     16 C         -20.5660   52.7367   -8.8792 C.3     1  UNL1        0.1122
     17 C         -21.8712   52.0247   -8.5219 C.3     1  UNL1        0.1122
     18 C         -20.1904   55.2268   -8.6958 C.ar    1  UNL1        0.0479
     19 C         -19.3834   55.0376   -7.5627 C.ar    1  UNL1        0.0145
     20 C         -18.7422   56.1234   -6.9601 C.ar    1  UNL1        0.0051
     21 C         -18.8833   57.4176   -7.4894 C.ar    1  UNL1        0.0715
     22 C         -19.7169   57.6099   -8.6044 C.ar    1  UNL1        0.0051
     23 C         -20.3588   56.5235   -9.2058 C.ar    1  UNL1        0.0145
     24 C         -18.2318   58.5959   -6.8104 C.3     1  UNL1        0.4186
     25 F         -17.9171   59.5789   -7.7327 F       1  UNL1       -0.1659
     26 F         -19.0806   59.1460   -5.8654 F       1  UNL1       -0.1659
     27 F         -17.0724   58.1770   -6.1851 F       1  UNL1       -0.1659
     28 C         -28.6253   46.5525   -9.5287 C.3     1  UNL1        0.1535
     29 C         -28.8508   46.2418   -8.0735 C.2     1  UNL1        0.2443
     30 O         -30.0017   45.8982   -7.6897 O.2     1  UNL1       -0.2730
     31 N         -27.7580   46.2990   -7.1410 N.am    1  UNL1       -0.2825
     32 H         -26.7863   46.3131   -7.5255 H       1  UNL1        0.1549
     33 C         -27.9128   46.2291   -5.7136 C.ar    1  UNL1        0.0535
     34 C         -28.4157   45.0781   -5.0834 C.ar    1  UNL1        0.0353
     35 C         -28.5732   45.0662   -3.6951 C.ar    1  UNL1        0.1002
     36 N         -28.2556   46.1661   -2.9624 N.ar    1  UNL1       -0.2422
     37 C         -27.7852   47.2993   -3.5473 C.ar    1  UNL1        0.1002
     38 C         -27.6141   47.3539   -4.9326 C.ar    1  UNL1        0.0353
     39 C         -29.8857   47.1941  -10.1358 C.3     1  UNL1        0.0569
     40 C         -29.9620   46.9479  -11.6157 C.ar    1  UNL1       -0.0017
     41 C         -29.6677   45.7545  -12.2686 C.ar    1  UNL1        0.0681
     42 N         -29.7550   45.9149  -13.6085 N.ar    1  UNL1       -0.3523
     43 C         -30.0927   47.2006  -13.8079 C.ar    1  UNL1        0.0563
     44 C         -30.2743   47.8454  -15.0307 C.ar    1  UNL1        0.0170
     45 C         -30.6052   49.2124  -15.0108 C.ar    1  UNL1        0.0015
     46 C         -30.7446   49.8971  -13.7835 C.ar    1  UNL1        0.0001
     47 C         -30.5544   49.2216  -12.5645 C.ar    1  UNL1        0.0012
     48 C         -30.2270   47.8653  -12.6153 C.ar    1  UNL1        0.0131
     49 H         -29.5775   45.1887  -14.3376 H       1  UNL1        0.1660
@<TRIPOS>BOND
     1     1     2    2
     2     2     3   am
     3     3    28    1
     4    28    39    1
     5    39    40    1
     6    40    41   ar
     7    41    42   ar
     8    42    43   ar
     9    43    44   ar
    10    44    45   ar
    11    45    46   ar
    12    46    47   ar
    13    47    48   ar
    14    28    29    1
    15    29    30    2
    16    29    31   am
    17    31    33    1
    18    33    34   ar
    19    34    35   ar
    20    35    36   ar
    21    36    37   ar
    22    37    38   ar
    23     2     5    1
    24     5     6   ar
    25     6     7   ar
    26     7     8   ar
    27     8    12    1
    28    12    13    1
    29    13    14    1
    30    14    15    1
    31    15    18    1
    32    18    19   ar
    33    19    20   ar
    34    20    21   ar
    35    21    24    1
    36    24    25    1
    37    24    26    1
    38    24    27    1
    39    21    22   ar
    40    22    23   ar
    41    15    16    1
    42    16    17    1
    43     8     9   ar
    44     9    10   ar
    45    10    11    1
    46    48    40   ar
    47    38    33   ar
    48    10     5   ar
    49    48    43   ar
    50    17    12    1
    51    23    18   ar
    52     3     4    1
    53    42    49    1
    54    31    32    1
@<TRIPOS>MOLECULE
*****
 49 54 0 0 0
SMALL
GASTEIGER

@<TRIPOS>ATOM
      1 O         -27.1955   47.4234   -9.5254 O.2     1  UNL1       -0.2701
      2 C         -27.3779   48.6717   -9.5232 C.2     1  UNL1        0.2483
      3 N         -28.7127   49.1980   -9.4713 N.am    1  UNL1       -0.2945
      4 H         -28.8446   50.1985   -9.2003 H       1  UNL1        0.1501
      5 C         -26.2075   49.5767   -9.5403 C.ar    1  UNL1        0.0808
      6 C         -25.7942   50.1552  -10.7510 C.ar    1  UNL1        0.0080
      7 C         -24.6870   51.0065  -10.7907 C.ar    1  UNL1        0.0148
      8 C         -23.9722   51.3042   -9.6183 C.ar    1  UNL1        0.0502
      9 C         -24.4003   50.7424   -8.4026 C.ar    1  UNL1        0.0443
     10 C         -25.5077   49.8901   -8.3601 C.ar    1  UNL1        0.1457
     11 F         -25.9227   49.4208   -7.1570 F       1  UNL1       -0.2040
     12 N         -22.8304   52.1878   -9.6590 N.pl3   1  UNL1       -0.3040
     13 C         -22.6395   53.0970  -10.8014 C.3     1  UNL1        0.1122
     14 C         -21.9926   54.4145  -10.3506 C.3     1  UNL1        0.1122
     15 N         -20.8823   54.1878   -9.4135 N.pl3   1  UNL1       -0.3041
     16 C         -20.5123   52.8177   -9.0413 C.3     1  UNL1        0.1122
     17 C         -21.7696   52.0420   -8.6469 C.3     1  UNL1        0.1122
     18 C         -20.2295   55.3151   -8.7998 C.ar    1  UNL1        0.0479
     19 C         -19.4194   55.1363   -7.6673 C.ar    1  UNL1        0.0145
     20 C         -18.7956   56.2309   -7.0623 C.ar    1  UNL1        0.0051
     21 C         -18.9575   57.5238   -7.5886 C.ar    1  UNL1        0.0715
     22 C         -19.7943   57.7053   -8.7030 C.ar    1  UNL1        0.0051
     23 C         -20.4188   56.6101   -9.3068 C.ar    1  UNL1        0.0145
     24 C         -18.3250   58.7109   -6.9069 C.3     1  UNL1        0.4186
     25 F         -17.9528   59.6671   -7.8361 F       1  UNL1       -0.1659
     26 F         -19.2118   59.2940   -6.0184 F       1  UNL1       -0.1659
     27 F         -17.2030   58.2940   -6.2154 F       1  UNL1       -0.1659
     28 C         -29.8934   48.3404   -9.6131 C.3     1  UNL1        0.1535
     29 C         -29.8474   47.6246  -10.9362 C.2     1  UNL1        0.2443
     30 O         -29.2641   46.5093  -11.0116 O.2     1  UNL1       -0.2730
     31 N         -30.4942   48.1888  -12.0897 N.am    1  UNL1       -0.2825
     32 H         -31.1886   48.9545  -11.9362 H       1  UNL1        0.1549
     33 C         -30.3272   47.6941  -13.4290 C.ar    1  UNL1        0.0535
     34 C         -30.0520   48.5572  -14.5033 C.ar    1  UNL1        0.0353
     35 C         -29.9237   48.0332  -15.7922 C.ar    1  UNL1        0.1002
     36 N         -30.0790   46.6999  -16.0059 N.ar    1  UNL1       -0.2422
     37 C         -30.3644   45.8446  -14.9887 C.ar    1  UNL1        0.1002
     38 C         -30.5021   46.3273  -13.6851 C.ar    1  UNL1        0.0353
     39 C         -29.9783   47.3224   -8.4618 C.3     1  UNL1        0.0569
     40 C         -29.7480   47.9841   -7.1330 C.ar    1  UNL1       -0.0017
     41 C         -30.4851   49.0365   -6.5980 C.ar    1  UNL1        0.0681
     42 N         -29.9458   49.4436   -5.4266 N.ar    1  UNL1       -0.3523
     43 C         -28.8699   48.6640   -5.2216 C.ar    1  UNL1        0.0563
     44 C         -27.9754   48.7243   -4.1540 C.ar    1  UNL1        0.0170
     45 C         -26.8960   47.8224   -4.1484 C.ar    1  UNL1        0.0015
     46 C         -26.7357   46.8917   -5.1985 C.ar    1  UNL1        0.0001
     47 C         -27.6532   46.8540   -6.2641 C.ar    1  UNL1        0.0012
     48 C         -28.7144   47.7608   -6.2425 C.ar    1  UNL1        0.0131
     49 H         -30.2885   50.2189   -4.8169 H       1  UNL1        0.1660
@<TRIPOS>BOND
     1     1     2    2
     2     2     3   am
     3     3    28    1
     4    28    39    1
     5    39    40    1
     6    40    41   ar
     7    41    42   ar
     8    42    43   ar
     9    43    44   ar
    10    44    45   ar
    11    45    46   ar
    12    46    47   ar
    13    47    48   ar
    14    28    29    1
    15    29    30    2
    16    29    31   am
    17    31    33    1
    18    33    34   ar
    19    34    35   ar
    20    35    36   ar
    21    36    37   ar
    22    37    38   ar
    23     2     5    1
    24     5     6   ar
    25     6     7   ar
    26     7     8   ar
    27     8    12    1
    28    12    13    1
    29    13    14    1
    30    14    15    1
    31    15    18    1
    32    18    19   ar
    33    19    20   ar
    34    20    21   ar
    35    21    24    1
    36    24    25    1
    37    24    26    1
    38    24    27    1
    39    21    22   ar
    40    22    23   ar
    41    15    16    1
    42    16    17    1
    43     8     9   ar
    44     9    10   ar
    45    10    11    1
    46    48    40   ar
    47    38    33   ar
    48    10     5   ar
    49    48    43   ar
    50    17    12    1
    51    23    18   ar
    52     3     4    1
    53    42    49    1
    54    31    32    1
@<TRIPOS>MOLECULE
*****
 49 54 0 0 0
SMALL
GASTEIGER

@<TRIPOS>ATOM
      1 O         -27.2108   47.4914   -9.8065 O.2     1  UNL1       -0.2701
      2 C         -27.1233   48.4362   -8.9750 C.2     1  UNL1        0.2483
      3 N         -28.0727   48.5333   -7.9024 N.am    1  UNL1       -0.2945
      4 H         -27.8402   49.1388   -7.0832 H       1  UNL1        0.1501
      5 C         -26.0193   49.4133   -9.0996 C.ar    1  UNL1        0.0808
      6 C         -25.7563   50.0097  -10.3431 C.ar    1  UNL1        0.0080
      7 C         -24.7139   50.9292  -10.4843 C.ar    1  UNL1        0.0148
      8 C         -23.9150   51.2784   -9.3825 C.ar    1  UNL1        0.0502
      9 C         -24.1934   50.6979   -8.1327 C.ar    1  UNL1        0.0443
     10 C         -25.2357   49.7774   -7.9886 C.ar    1  UNL1        0.1457
     11 F         -25.5080   49.2898   -6.7524 F       1  UNL1       -0.2040
     12 N         -22.8403   52.2324   -9.5280 N.pl3   1  UNL1       -0.3040
     13 C         -22.8540   53.1978  -10.6397 C.3     1  UNL1        0.1122
     14 C         -22.2283   54.5334  -10.2129 C.3     1  UNL1        0.1122
     15 N         -20.9926   54.3380   -9.4401 N.pl3   1  UNL1       -0.3041
     16 C         -20.5000   52.9795   -9.1865 C.3     1  UNL1        0.1122
     17 C         -21.6482   52.1115   -8.6705 C.3     1  UNL1        0.1122
     18 C         -20.3288   55.4776   -8.8621 C.ar    1  UNL1        0.0479
     19 C         -19.5576   55.3349   -7.6977 C.ar    1  UNL1        0.0145
     20 C         -18.9234   56.4421   -7.1277 C.ar    1  UNL1        0.0051
     21 C         -19.0355   57.7111   -7.7209 C.ar    1  UNL1        0.0715
     22 C         -19.8338   57.8581   -8.8682 C.ar    1  UNL1        0.0051
     23 C         -20.4687   56.7503   -9.4370 C.ar    1  UNL1        0.0145
     24 C         -18.3923   58.9143   -7.0786 C.3     1  UNL1        0.4186
     25 F         -17.2740   58.5418   -6.3528 F       1  UNL1       -0.1659
     26 F         -17.9985   59.8294   -8.0397 F       1  UNL1       -0.1659
     27 F         -19.3009   59.5166   -6.2286 F       1  UNL1       -0.1659
     28 C         -29.2653   47.6826   -7.8394 C.3     1  UNL1        0.1535
     29 C         -29.3986   47.0931   -6.4611 C.2     1  UNL1        0.2443
     30 O         -30.4925   46.5662   -6.1212 O.2     1  UNL1       -0.2730
     31 N         -28.2795   47.0972   -5.5584 N.am    1  UNL1       -0.2825
     32 H         -27.3308   47.2830   -5.9553 H       1  UNL1        0.1549
     33 C         -28.3678   46.7557   -4.1649 C.ar    1  UNL1        0.0535
     34 C         -29.0951   47.5455   -3.2583 C.ar    1  UNL1        0.0353
     35 C         -29.1307   47.1881   -1.9080 C.ar    1  UNL1        0.1002
     36 N         -28.4539   46.0923   -1.4736 N.ar    1  UNL1       -0.2422
     37 C         -27.7270   45.3211   -2.3247 C.ar    1  UNL1        0.1002
     38 C         -27.6639   45.6439   -3.6824 C.ar    1  UNL1        0.0353
     39 C         -30.5318   48.4791   -8.2007 C.3     1  UNL1        0.0569
     40 C         -30.5802   48.7861   -9.6704 C.ar    1  UNL1       -0.0017
     41 C         -31.0868   47.9589  -10.6684 C.ar    1  UNL1        0.0681
     42 N         -30.8874   48.5115  -11.8865 N.ar    1  UNL1       -0.3523
     43 C         -30.2517   49.6755  -11.6673 C.ar    1  UNL1        0.0563
     44 C         -29.8111   50.5894  -12.6236 C.ar    1  UNL1        0.0170
     45 C         -29.1415   51.7415  -12.1732 C.ar    1  UNL1        0.0015
     46 C         -28.9285   51.9518  -10.7930 C.ar    1  UNL1        0.0001
     47 C         -29.3830   51.0121   -9.8501 C.ar    1  UNL1        0.0012
     48 C         -30.0444   49.8786  -10.3264 C.ar    1  UNL1        0.0131
     49 H         -31.1582   48.1044  -12.8092 H       1  UNL1        0.1660
@<TRIPOS>BOND
     1     1     2    2
     2     2     3   am
     3     3    28    1
     4    28    39    1
     5    39    40    1
     6    40    41   ar
     7    41    42   ar
     8    42    43   ar
     9    43    44   ar
    10    44    45   ar
    11    45    46   ar
    12    46    47   ar
    13    47    48   ar
    14    28    29    1
    15    29    30    2
    16    29    31   am
    17    31    33    1
    18    33    34   ar
    19    34    35   ar
    20    35    36   ar
    21    36    37   ar
    22    37    38   ar
    23     2     5    1
    24     5     6   ar
    25     6     7   ar
    26     7     8   ar
    27     8    12    1
    28    12    13    1
    29    13    14    1
    30    14    15    1
    31    15    18    1
    32    18    19   ar
    33    19    20   ar
    34    20    21   ar
    35    21    24    1
    36    24    25    1
    37    24    26    1
    38    24    27    1
    39    21    22   ar
    40    22    23   ar
    41    15    16    1
    42    16    17    1
    43     8     9   ar
    44     9    10   ar
    45    10    11    1
    46    48    40   ar
    47    38    33   ar
    48    10     5   ar
    49    48    43   ar
    50    17    12    1
    51    23    18   ar
    52     3     4    1
    53    42    49    1
    54    31    32    1
@<TRIPOS>MOLECULE
*****
 49 54 0 0 0
SMALL
GASTEIGER

@<TRIPOS>ATOM
      1 O         -27.2096   47.4077   -9.5984 O.2     1  UNL1       -0.2701
      2 C         -27.3883   48.6527   -9.5007 C.2     1  UNL1        0.2483
      3 N         -28.7172   49.1729   -9.3429 N.am    1  UNL1       -0.2945
      4 H         -28.8321   50.1522   -8.9971 H       1  UNL1        0.1501
      5 C         -26.2180   49.5578   -9.5164 C.ar    1  UNL1        0.0808
      6 C         -25.8488   50.1953  -10.7116 C.ar    1  UNL1        0.0080
      7 C         -24.7426   51.0479  -10.7502 C.ar    1  UNL1        0.0148
      8 C         -23.9845   51.2877   -9.5918 C.ar    1  UNL1        0.0502
      9 C         -24.3684   50.6667   -8.3902 C.ar    1  UNL1        0.0443
     10 C         -25.4747   49.8129   -8.3489 C.ar    1  UNL1        0.1457
     11 F         -25.8457   49.2848   -7.1558 F       1  UNL1       -0.2040
     12 N         -22.8437   52.1727   -9.6311 N.pl3   1  UNL1       -0.3040
     13 C         -22.6578   53.0892  -10.7684 C.3     1  UNL1        0.1122
     14 C         -22.0105   54.4045  -10.3116 C.3     1  UNL1        0.1122
     15 N         -20.8965   54.1729   -9.3800 N.pl3   1  UNL1       -0.3041
     16 C         -20.5239   52.8009   -9.0179 C.3     1  UNL1        0.1122
     17 C         -21.7791   52.0215   -8.6237 C.3     1  UNL1        0.1122
     18 C         -20.2425   55.2969   -8.7617 C.ar    1  UNL1        0.0479
     19 C         -19.4178   55.1101   -7.6410 C.ar    1  UNL1        0.0145
     20 C         -18.7928   56.2013   -7.0313 C.ar    1  UNL1        0.0051
     21 C         -18.9681   57.4991   -7.5411 C.ar    1  UNL1        0.0715
     22 C         -19.8192   57.6883   -8.6433 C.ar    1  UNL1        0.0051
     23 C         -20.4450   56.5964   -9.2518 C.ar    1  UNL1        0.0145
     24 C         -18.3338   58.6820   -6.8539 C.3     1  UNL1        0.4186
     25 F         -17.1819   58.3006   -6.1879 F       1  UNL1       -0.1659
     26 F         -17.9972   59.6593   -7.7745 F       1  UNL1       -0.1659
     27 F         -19.2274   59.2112   -5.9416 F       1  UNL1       -0.1659
     28 C         -29.9059   48.3260   -9.4818 C.3     1  UNL1        0.1535
     29 C         -30.4094   47.9272   -8.1208 C.2     1  UNL1        0.2443
     30 O         -31.5637   47.4312   -8.0135 O.2     1  UNL1       -0.2730
     31 N         -29.5687   48.0747   -6.9638 N.am    1  UNL1       -0.2825
     32 H         -28.5456   48.2223   -7.1174 H       1  UNL1        0.1549
     33 C         -30.0282   47.9245   -5.6100 C.ar    1  UNL1        0.0535
     34 C         -30.4168   49.0322   -4.8375 C.ar    1  UNL1        0.0353
     35 C         -30.8318   48.8396   -3.5173 C.ar    1  UNL1        0.1002
     36 N         -30.8449   47.5908   -2.9810 N.ar    1  UNL1       -0.2422
     37 C         -30.4564   46.5039   -3.6987 C.ar    1  UNL1        0.1002
     38 C         -30.0332   46.6524   -5.0216 C.ar    1  UNL1        0.0353
     39 C         -31.0135   49.0527  -10.2654 C.3     1  UNL1        0.0569
     40 C         -30.6543   49.1854  -11.7179 C.ar    1  UNL1       -0.0017
     41 C         -30.5606   50.3726  -12.4382 C.ar    1  UNL1        0.0681
     42 N         -30.3063   50.1159  -13.7413 N.ar    1  UNL1       -0.3523
     43 C         -30.2476   48.7775  -13.8521 C.ar    1  UNL1        0.0563
     44 C         -30.0325   48.0356  -15.0128 C.ar    1  UNL1        0.0170
     45 C         -30.0330   46.6330  -14.9065 C.ar    1  UNL1        0.0015
     46 C         -30.2471   46.0101  -13.6572 C.ar    1  UNL1        0.0001
     47 C         -30.4628   46.7837  -12.5024 C.ar    1  UNL1        0.0012
     48 C         -30.4565   48.1731  -12.6384 C.ar    1  UNL1        0.0131
     49 H         -30.1964   50.8178  -14.5066 H       1  UNL1        0.1660
@<TRIPOS>BOND
     1     1     2    2
     2     2     3   am
     3     3    28    1
     4    28    39    1
     5    39    40    1
     6    40    41   ar
     7    41    42   ar
     8    42    43   ar
     9    43    44   ar
    10    44    45   ar
    11    45    46   ar
    12    46    47   ar
    13    47    48   ar
    14    28    29    1
    15    29    30    2
    16    29    31   am
    17    31    33    1
    18    33    34   ar
    19    34    35   ar
    20    35    36   ar
    21    36    37   ar
    22    37    38   ar
    23     2     5    1
    24     5     6   ar
    25     6     7   ar
    26     7     8   ar
    27     8    12    1
    28    12    13    1
    29    13    14    1
    30    14    15    1
    31    15    18    1
    32    18    19   ar
    33    19    20   ar
    34    20    21   ar
    35    21    24    1
    36    24    25    1
    37    24    26    1
    38    24    27    1
    39    21    22   ar
    40    22    23   ar
    41    15    16    1
    42    16    17    1
    43     8     9   ar
    44     9    10   ar
    45    10    11    1
    46    48    40   ar
    47    38    33   ar
    48    10     5   ar
    49    48    43   ar
    50    17    12    1
    51    23    18   ar
    52     3     4    1
    53    42    49    1
    54    31    32    1
