@<TRIPOS>MOLECULE
*****
 35 38 0 0 0
SMALL
GASTEIGER

@<TRIPOS>ATOM
      1 N         -10.0545  -10.3265   31.6719 N.am    1  UNL1       -0.2685
      2 C          -8.7015  -10.6860   31.3509 C.2     1  UNL1        0.2672
      3 O          -8.4287  -11.8830   31.0652 O.2     1  UNL1       -0.2682
      4 C          -7.6460   -9.6543   31.3444 C.ar    1  UNL1        0.1347
      5 C          -6.9501   -9.3174   32.5162 C.ar    1  UNL1        0.0238
      6 C          -5.9261   -8.3627   32.4603 C.ar    1  UNL1        0.0031
      7 C          -5.2079   -8.0088   33.6132 C.ar    1  UNL1        0.0001
      8 C          -4.1865   -7.0568   33.5380 C.ar    1  UNL1        0.0000
      9 C          -3.8751   -6.4535   32.3159 C.ar    1  UNL1        0.0000
     10 C          -4.5833   -6.7980   31.1607 C.ar    1  UNL1        0.0015
     11 C          -5.6099   -7.7519   31.2258 C.ar    1  UNL1        0.0192
     12 C          -6.3328   -8.1154   30.0838 C.ar    1  UNL1        0.0989
     13 N          -7.3187   -9.0458   30.1709 N.ar    1  UNL1       -0.2393
     14 C         -10.7172  -10.8556   29.3418 C.3     1  UNL1        0.0265
     15 C         -11.0258  -10.0351   30.6025 C.3     1  UNL1        0.1007
     16 C         -11.1073   -8.5361   30.3489 C.ar    1  UNL1        0.0234
     17 C         -10.2064   -7.8868   29.4784 C.ar    1  UNL1        0.0019
     18 C         -10.2391   -6.4980   29.3279 C.ar    1  UNL1        0.0295
     19 C         -11.1594   -5.7360   30.0488 C.ar    1  UNL1        0.1424
     20 F         -11.1838   -4.3881   29.9056 F       1  UNL1       -0.2041
     21 C         -12.0458   -6.3614   30.9270 C.ar    1  UNL1        0.0590
     22 C         -12.0189   -7.7506   31.0853 C.ar    1  UNL1        0.1399
     23 F         -12.8699   -8.3237   31.9735 F       1  UNL1       -0.2044
     24 C         -10.4319  -10.1728   33.0820 C.3     1  UNL1        0.1211
     25 C         -10.3047  -11.4938   33.8077 C.ar    1  UNL1        0.0033
     26 C          -9.1541  -11.6919   34.5872 C.ar    1  UNL1       -0.0022
     27 C          -8.9392  -12.8969   35.2467 C.ar    1  UNL1       -0.0000
     28 C          -9.8772  -13.9197   35.1550 C.ar    1  UNL1        0.0068
     29 C         -11.0536  -13.7503   34.4071 C.ar    1  UNL1        0.0806
     30 C         -11.2690  -12.5334   33.7071 C.ar    1  UNL1        0.0339
     31 I         -12.9822  -12.3159   32.4363 I       1  UNL1       -0.0426
     32 C         -12.0291  -14.8626   34.3912 C.2     1  UNL1        0.3384
     33 O         -12.8546  -14.9880   35.3359 O.2     1  UNL1       -0.2451
     34 O         -12.0896  -15.7395   33.3126 O.3     1  UNL1       -0.4771
     35 H         -12.7695  -16.4902   33.2898 H       1  UNL1        0.2954
@<TRIPOS>BOND
     1    14    15    1
     2    15    16    1
     3    16    17   ar
     4    17    18   ar
     5    18    19   ar
     6    19    20    1
     7    19    21   ar
     8    21    22   ar
     9    22    23    1
    10    15     1    1
    11     1    24    1
    12    24    25    1
    13    25    26   ar
    14    26    27   ar
    15    27    28   ar
    16    28    29   ar
    17    29    32    1
    18    32    33    2
    19    32    34    1
    20    29    30   ar
    21    30    31    1
    22     1     2   am
    23     2     3    2
    24     2     4    1
    25     4     5   ar
    26     5     6   ar
    27     6     7   ar
    28     7     8   ar
    29     8     9   ar
    30     9    10   ar
    31    10    11   ar
    32    11    12   ar
    33    12    13   ar
    34    22    16   ar
    35    30    25   ar
    36    13     4   ar
    37    11     6   ar
    38    34    35    1
@<TRIPOS>MOLECULE
*****
 35 38 0 0 0
SMALL
GASTEIGER

@<TRIPOS>ATOM
      1 N          -9.2755  -10.5893   31.4772 N.am    1  UNL1       -0.2685
      2 C         -10.2320  -11.2245   30.6143 C.2     1  UNL1        0.2672
      3 O         -10.1429  -11.0670   29.3669 O.2     1  UNL1       -0.2682
      4 C         -11.3003  -12.0648   31.1897 C.ar    1  UNL1        0.1347
      5 C         -11.1077  -13.4380   31.4091 C.ar    1  UNL1        0.0238
      6 C         -12.1316  -14.1933   31.9961 C.ar    1  UNL1        0.0031
      7 C         -11.9673  -15.5668   32.2340 C.ar    1  UNL1        0.0001
      8 C         -12.9984  -16.3041   32.8244 C.ar    1  UNL1        0.0000
      9 C         -14.1965  -15.6781   33.1808 C.ar    1  UNL1        0.0000
     10 C         -14.3717  -14.3105   32.9491 C.ar    1  UNL1        0.0015
     11 C         -13.3433  -13.5621   32.3571 C.ar    1  UNL1        0.0192
     12 C         -13.4930  -12.1916   32.1159 C.ar    1  UNL1        0.0989
     13 N         -12.4807  -11.4870   31.5467 N.ar    1  UNL1       -0.2393
     14 C          -7.6060  -11.1333   33.2280 C.3     1  UNL1        0.0265
     15 C          -7.9685  -11.2183   31.7383 C.3     1  UNL1        0.1007
     16 C          -6.9032  -10.6384   30.8182 C.ar    1  UNL1        0.0234
     17 C          -7.2481   -9.9256   29.6503 C.ar    1  UNL1        0.0019
     18 C          -6.2579   -9.4792   28.7713 C.ar    1  UNL1        0.0295
     19 C          -4.9137   -9.7452   29.0355 C.ar    1  UNL1        0.1424
     20 F          -3.9560   -9.3166   28.1771 F       1  UNL1       -0.2041
     21 C          -4.5572  -10.4641   30.1776 C.ar    1  UNL1        0.0590
     22 C          -5.5418  -10.9164   31.0618 C.ar    1  UNL1        0.1399
     23 F          -5.1641  -11.6431   32.1439 F       1  UNL1       -0.2044
     24 C          -9.6526   -9.3459   32.1602 C.3     1  UNL1        0.1211
     25 C          -9.4689   -8.1620   31.2371 C.ar    1  UNL1        0.0033
     26 C         -10.4373   -7.9670   30.2396 C.ar    1  UNL1       -0.0022
     27 C         -10.3153   -6.9303   29.3212 C.ar    1  UNL1       -0.0000
     28 C          -9.2341   -6.0583   29.3924 C.ar    1  UNL1        0.0068
     29 C          -8.2590   -6.2039   30.3923 C.ar    1  UNL1        0.0806
     30 C          -8.3598   -7.2764   31.3178 C.ar    1  UNL1        0.0339
     31 I          -6.7999   -7.6062   32.7514 I       1  UNL1       -0.0426
     32 C          -7.1613   -5.2127   30.4372 C.2     1  UNL1        0.3384
     33 O          -5.9683   -5.5886   30.2789 O.2     1  UNL1       -0.2451
     34 O          -7.4338   -3.8569   30.5904 O.3     1  UNL1       -0.4771
     35 H          -6.6858   -3.1738   30.6018 H       1  UNL1        0.2954
@<TRIPOS>BOND
     1    14    15    1
     2    15    16    1
     3    16    17   ar
     4    17    18   ar
     5    18    19   ar
     6    19    20    1
     7    19    21   ar
     8    21    22   ar
     9    22    23    1
    10    15     1    1
    11     1    24    1
    12    24    25    1
    13    25    26   ar
    14    26    27   ar
    15    27    28   ar
    16    28    29   ar
    17    29    32    1
    18    32    33    2
    19    32    34    1
    20    29    30   ar
    21    30    31    1
    22     1     2   am
    23     2     3    2
    24     2     4    1
    25     4     5   ar
    26     5     6   ar
    27     6     7   ar
    28     7     8   ar
    29     8     9   ar
    30     9    10   ar
    31    10    11   ar
    32    11    12   ar
    33    12    13   ar
    34    22    16   ar
    35    30    25   ar
    36    13     4   ar
    37    11     6   ar
    38    34    35    1
@<TRIPOS>MOLECULE
*****
 35 38 0 0 0
SMALL
GASTEIGER

@<TRIPOS>ATOM
      1 N         -10.2139   -9.7907   31.4453 N.am    1  UNL1       -0.2685
      2 C         -10.9182  -10.0532   32.6691 C.2     1  UNL1        0.2672
      3 O         -11.2412   -9.0918   33.4176 O.2     1  UNL1       -0.2682
      4 C         -11.2700  -11.4392   33.0349 C.ar    1  UNL1        0.1347
      5 C         -12.3815  -12.0822   32.4672 C.ar    1  UNL1        0.0238
      6 C         -12.6577  -13.4127   32.8087 C.ar    1  UNL1        0.0031
      7 C         -13.7578  -14.0848   32.2536 C.ar    1  UNL1        0.0001
      8 C         -14.0162  -15.4140   32.6029 C.ar    1  UNL1        0.0000
      9 C         -13.1812  -16.0797   33.5051 C.ar    1  UNL1        0.0000
     10 C         -12.0823  -15.4207   34.0643 C.ar    1  UNL1        0.0015
     11 C         -11.8148  -14.0872   33.7204 C.ar    1  UNL1        0.0192
     12 C         -10.7204  -13.4055   34.2650 C.ar    1  UNL1        0.0989
     13 N         -10.4785  -12.1163   33.9122 N.ar    1  UNL1       -0.2393
     14 C         -10.4105  -10.1644   29.0019 C.3     1  UNL1        0.0265
     15 C         -10.9479   -9.4086   30.2257 C.3     1  UNL1        0.1007
     16 C         -10.9493   -7.8958   30.0551 C.ar    1  UNL1        0.0234
     17 C          -9.9470   -7.2380   29.3111 C.ar    1  UNL1        0.0019
     18 C          -9.9137   -5.8429   29.2408 C.ar    1  UNL1        0.0295
     19 C         -10.8686   -5.0836   29.9181 C.ar    1  UNL1        0.1424
     20 F         -10.8294   -3.7300   29.8535 F       1  UNL1       -0.2041
     21 C         -11.8565   -5.7186   30.6725 C.ar    1  UNL1        0.0590
     22 C         -11.8963   -7.1143   30.7500 C.ar    1  UNL1        0.1399
     23 F         -12.8479   -7.6991   31.5208 F       1  UNL1       -0.2044
     24 C          -8.7601   -9.9901   31.4070 C.3     1  UNL1        0.1211
     25 C          -8.0469   -8.7640   31.9319 C.ar    1  UNL1        0.0033
     26 C          -8.7968   -7.5827   32.0466 C.ar    1  UNL1       -0.0022
     27 C          -8.2030   -6.4008   32.4752 C.ar    1  UNL1       -0.0000
     28 C          -6.8544   -6.3803   32.8145 C.ar    1  UNL1        0.0068
     29 C          -6.0771   -7.5473   32.7390 C.ar    1  UNL1        0.0806
     30 C          -6.6676   -8.7530   32.2756 C.ar    1  UNL1        0.0339
     31 I          -5.4600  -10.5042   32.0060 I       1  UNL1       -0.0426
     32 C          -4.6610   -7.4634   33.1595 C.2     1  UNL1        0.3384
     33 O          -3.8270   -6.8501   32.4399 O.2     1  UNL1       -0.2451
     34 O          -4.2473   -8.0010   34.3744 O.3     1  UNL1       -0.4771
     35 H          -3.2823   -7.9280   34.6741 H       1  UNL1        0.2954
@<TRIPOS>BOND
     1    14    15    1
     2    15    16    1
     3    16    17   ar
     4    17    18   ar
     5    18    19   ar
     6    19    20    1
     7    19    21   ar
     8    21    22   ar
     9    22    23    1
    10    15     1    1
    11     1    24    1
    12    24    25    1
    13    25    26   ar
    14    26    27   ar
    15    27    28   ar
    16    28    29   ar
    17    29    32    1
    18    32    33    2
    19    32    34    1
    20    29    30   ar
    21    30    31    1
    22     1     2   am
    23     2     3    2
    24     2     4    1
    25     4     5   ar
    26     5     6   ar
    27     6     7   ar
    28     7     8   ar
    29     8     9   ar
    30     9    10   ar
    31    10    11   ar
    32    11    12   ar
    33    12    13   ar
    34    22    16   ar
    35    30    25   ar
    36    13     4   ar
    37    11     6   ar
    38    34    35    1
@<TRIPOS>MOLECULE
*****
 35 38 0 0 0
SMALL
GASTEIGER

@<TRIPOS>ATOM
      1 N         -10.5532  -10.7181   31.2554 N.am    1  UNL1       -0.2685
      2 C          -9.5683  -11.6897   30.8696 C.2     1  UNL1        0.2672
      3 O          -9.9182  -12.8855   30.6787 O.2     1  UNL1       -0.2682
      4 C          -8.1617  -11.2816   30.6868 C.ar    1  UNL1        0.1347
      5 C          -7.6980  -10.8005   29.4521 C.ar    1  UNL1        0.0238
      6 C          -6.3658  -10.3835   29.3304 C.ar    1  UNL1        0.0031
      7 C          -5.8739   -9.8920   28.1112 C.ar    1  UNL1        0.0001
      8 C          -4.5425   -9.4766   28.0090 C.ar    1  UNL1        0.0000
      9 C          -3.6957   -9.5481   29.1191 C.ar    1  UNL1        0.0000
     10 C          -4.1745  -10.0355   30.3388 C.ar    1  UNL1        0.0015
     11 C          -5.5085  -10.4549   30.4515 C.ar    1  UNL1        0.0192
     12 C          -6.0127  -10.9453   31.6615 C.ar    1  UNL1        0.0989
     13 N          -7.3095  -11.3400   31.7474 N.ar    1  UNL1       -0.2393
     14 C         -11.2957  -10.7824   28.8905 C.3     1  UNL1        0.0265
     15 C         -11.3882  -10.0536   30.2389 C.3     1  UNL1        0.1007
     16 C         -11.0494   -8.5718   30.1548 C.ar    1  UNL1        0.0234
     17 C          -9.8040   -8.1282   29.6618 C.ar    1  UNL1        0.0019
     18 C          -9.4763   -6.7700   29.6764 C.ar    1  UNL1        0.0295
     19 C         -10.3770   -5.8368   30.1915 C.ar    1  UNL1        0.1424
     20 F         -10.0532   -4.5205   30.2105 F       1  UNL1       -0.2041
     21 C         -11.6061   -6.2612   30.6988 C.ar    1  UNL1        0.0590
     22 C         -11.9415   -7.6188   30.6899 C.ar    1  UNL1        0.1399
     23 F         -13.1292   -8.0019   31.2232 F       1  UNL1       -0.2044
     24 C         -10.6571  -10.3365   32.6690 C.3     1  UNL1        0.1211
     25 C         -10.5014  -11.5524   33.5550 C.ar    1  UNL1        0.0033
     26 C          -9.3457  -11.6269   34.3486 C.ar    1  UNL1       -0.0022
     27 C          -9.1048  -12.7345   35.1539 C.ar    1  UNL1       -0.0000
     28 C         -10.0214  -13.7797   35.1958 C.ar    1  UNL1        0.0068
     29 C         -11.2021  -13.7301   34.4373 C.ar    1  UNL1        0.0806
     30 C         -11.4439  -12.6160   33.5903 C.ar    1  UNL1        0.0339
     31 I         -13.1631  -12.5958   32.3092 I       1  UNL1       -0.0426
     32 C         -12.1543  -14.8552   34.5658 C.2     1  UNL1        0.3384
     33 O         -12.9946  -14.8632   35.5057 O.2     1  UNL1       -0.2451
     34 O         -12.1767  -15.8786   33.6233 O.3     1  UNL1       -0.4771
     35 H         -12.8406  -16.6401   33.6977 H       1  UNL1        0.2954
@<TRIPOS>BOND
     1    14    15    1
     2    15    16    1
     3    16    17   ar
     4    17    18   ar
     5    18    19   ar
     6    19    20    1
     7    19    21   ar
     8    21    22   ar
     9    22    23    1
    10    15     1    1
    11     1    24    1
    12    24    25    1
    13    25    26   ar
    14    26    27   ar
    15    27    28   ar
    16    28    29   ar
    17    29    32    1
    18    32    33    2
    19    32    34    1
    20    29    30   ar
    21    30    31    1
    22     1     2   am
    23     2     3    2
    24     2     4    1
    25     4     5   ar
    26     5     6   ar
    27     6     7   ar
    28     7     8   ar
    29     8     9   ar
    30     9    10   ar
    31    10    11   ar
    32    11    12   ar
    33    12    13   ar
    34    22    16   ar
    35    30    25   ar
    36    13     4   ar
    37    11     6   ar
    38    34    35    1
@<TRIPOS>MOLECULE
*****
 35 38 0 0 0
SMALL
GASTEIGER

@<TRIPOS>ATOM
      1 N          -8.1130  -10.1393   31.4510 N.am    1  UNL1       -0.2685
      2 C          -9.1951  -10.6551   30.6598 C.2     1  UNL1        0.2672
      3 O          -9.3044  -10.3041   29.4542 O.2     1  UNL1       -0.2682
      4 C         -10.1602  -11.5991   31.2564 C.ar    1  UNL1        0.1347
      5 C          -9.9265  -12.1830   32.5116 C.ar    1  UNL1        0.0238
      6 C         -10.8867  -13.0418   33.0627 C.ar    1  UNL1        0.0031
      7 C         -10.6851  -13.6362   34.3181 C.ar    1  UNL1        0.0001
      8 C         -11.6561  -14.4877   34.8544 C.ar    1  UNL1        0.0000
      9 C         -12.8313  -14.7507   34.1445 C.ar    1  UNL1        0.0000
     10 C         -13.0435  -14.1642   32.8933 C.ar    1  UNL1        0.0015
     11 C         -12.0754  -13.3087   32.3465 C.ar    1  UNL1        0.0192
     12 C         -12.2642  -12.7078   31.0966 C.ar    1  UNL1        0.0989
     13 N         -11.3149  -11.8785   30.5906 N.ar    1  UNL1       -0.2393
     14 C          -6.0060  -10.5166   32.7026 C.3     1  UNL1        0.0265
     15 C          -6.7822  -10.7706   31.4022 C.3     1  UNL1        0.1007
     16 C          -6.0315  -10.3384   30.1503 C.ar    1  UNL1        0.0234
     17 C          -5.4850   -9.0431   30.0302 C.ar    1  UNL1        0.0019
     18 C          -4.8786   -8.6348   28.8394 C.ar    1  UNL1        0.0295
     19 C          -4.8177   -9.5041   27.7494 C.ar    1  UNL1        0.1424
     20 F          -4.2348   -9.1024   26.5932 F       1  UNL1       -0.2041
     21 C          -5.3690  -10.7827   27.8464 C.ar    1  UNL1        0.0590
     22 C          -5.9795  -11.1990   29.0337 C.ar    1  UNL1        0.1399
     23 F          -6.5371  -12.4353   29.0831 F       1  UNL1       -0.2044
     24 C          -8.3752   -9.0260   32.3711 C.3     1  UNL1        0.1211
     25 C          -8.4236   -7.7178   31.6137 C.ar    1  UNL1        0.0033
     26 C          -7.2039   -7.0622   31.3824 C.ar    1  UNL1       -0.0022
     27 C          -7.1680   -5.8318   30.7359 C.ar    1  UNL1       -0.0000
     28 C          -8.3466   -5.2415   30.2925 C.ar    1  UNL1        0.0068
     29 C          -9.5838   -5.8786   30.4808 C.ar    1  UNL1        0.0806
     30 C          -9.6339   -7.1222   31.1649 C.ar    1  UNL1        0.0339
     31 I         -11.5263   -8.0323   31.5984 I       1  UNL1       -0.0426
     32 C         -10.7920   -5.2156   29.9425 C.2     1  UNL1        0.3384
     33 O         -10.7840   -3.9734   29.7270 O.2     1  UNL1       -0.2451
     34 O         -11.9215   -5.9573   29.6106 O.3     1  UNL1       -0.4771
     35 H         -12.7433   -5.5090   29.2234 H       1  UNL1        0.2954
@<TRIPOS>BOND
     1    14    15    1
     2    15    16    1
     3    16    17   ar
     4    17    18   ar
     5    18    19   ar
     6    19    20    1
     7    19    21   ar
     8    21    22   ar
     9    22    23    1
    10    15     1    1
    11     1    24    1
    12    24    25    1
    13    25    26   ar
    14    26    27   ar
    15    27    28   ar
    16    28    29   ar
    17    29    32    1
    18    32    33    2
    19    32    34    1
    20    29    30   ar
    21    30    31    1
    22     1     2   am
    23     2     3    2
    24     2     4    1
    25     4     5   ar
    26     5     6   ar
    27     6     7   ar
    28     7     8   ar
    29     8     9   ar
    30     9    10   ar
    31    10    11   ar
    32    11    12   ar
    33    12    13   ar
    34    22    16   ar
    35    30    25   ar
    36    13     4   ar
    37    11     6   ar
    38    34    35    1
@<TRIPOS>MOLECULE
*****
 35 38 0 0 0
SMALL
GASTEIGER

@<TRIPOS>ATOM
      1 N         -10.5103   -9.5973   31.7260 N.am    1  UNL1       -0.2685
      2 C          -9.9669  -10.2429   30.5638 C.2     1  UNL1        0.2672
      3 O         -10.7466  -10.6748   29.6725 O.2     1  UNL1       -0.2682
      4 C          -8.5053  -10.3842   30.4142 C.ar    1  UNL1        0.1347
      5 C          -7.8196   -9.7712   29.3535 C.ar    1  UNL1        0.0238
      6 C          -6.4263   -9.8942   29.2700 C.ar    1  UNL1        0.0031
      7 C          -5.7115   -9.2880   28.2252 C.ar    1  UNL1        0.0001
      8 C          -4.3207   -9.4181   28.1597 C.ar    1  UNL1        0.0000
      9 C          -3.6357  -10.1510   29.1334 C.ar    1  UNL1        0.0000
     10 C          -4.3369  -10.7591   30.1790 C.ar    1  UNL1        0.0015
     11 C          -5.7322  -10.6346   30.2534 C.ar    1  UNL1        0.0192
     12 C          -6.4574  -11.2323   31.2906 C.ar    1  UNL1        0.0989
     13 N          -7.8075  -11.0928   31.3444 N.ar    1  UNL1       -0.2393
     14 C         -12.1307   -7.9374   30.8499 C.3     1  UNL1        0.0265
     15 C         -10.8667   -8.1677   31.6909 C.3     1  UNL1        0.1007
     16 C          -9.6762   -7.3313   31.2427 C.ar    1  UNL1        0.0234
     17 C          -9.7543   -6.4830   30.1179 C.ar    1  UNL1        0.0019
     18 C          -8.6258   -5.7925   29.6683 C.ar    1  UNL1        0.0295
     19 C          -7.4031   -5.9451   30.3233 C.ar    1  UNL1        0.1424
     20 F          -6.3086   -5.2790   29.8803 F       1  UNL1       -0.2041
     21 C          -7.3052   -6.7938   31.4271 C.ar    1  UNL1        0.0590
     22 C          -8.4291   -7.4902   31.8828 C.ar    1  UNL1        0.1399
     23 F          -8.2917   -8.3347   32.9362 F       1  UNL1       -0.2044
     24 C         -10.6270  -10.3628   32.9730 C.3     1  UNL1        0.1211
     25 C         -11.5772  -11.5253   32.7897 C.ar    1  UNL1        0.0033
     26 C         -12.6486  -11.3470   31.9003 C.ar    1  UNL1       -0.0022
     27 C         -13.5932  -12.3500   31.7128 C.ar    1  UNL1       -0.0000
     28 C         -13.4758  -13.5559   32.3956 C.ar    1  UNL1        0.0068
     29 C         -12.4033  -13.7827   33.2733 C.ar    1  UNL1        0.0806
     30 C         -11.4489  -12.7541   33.4929 C.ar    1  UNL1        0.0339
     31 I          -9.8949  -13.0252   34.9452 I       1  UNL1       -0.0426
     32 C         -12.3153  -15.1054   33.9304 C.2     1  UNL1        0.3384
     33 O         -12.5979  -15.2193   35.1539 O.2     1  UNL1       -0.2451
     34 O         -11.9837  -16.2417   33.1992 O.3     1  UNL1       -0.4771
     35 H         -11.9418  -17.1518   33.6422 H       1  UNL1        0.2954
@<TRIPOS>BOND
     1    14    15    1
     2    15    16    1
     3    16    17   ar
     4    17    18   ar
     5    18    19   ar
     6    19    20    1
     7    19    21   ar
     8    21    22   ar
     9    22    23    1
    10    15     1    1
    11     1    24    1
    12    24    25    1
    13    25    26   ar
    14    26    27   ar
    15    27    28   ar
    16    28    29   ar
    17    29    32    1
    18    32    33    2
    19    32    34    1
    20    29    30   ar
    21    30    31    1
    22     1     2   am
    23     2     3    2
    24     2     4    1
    25     4     5   ar
    26     5     6   ar
    27     6     7   ar
    28     7     8   ar
    29     8     9   ar
    30     9    10   ar
    31    10    11   ar
    32    11    12   ar
    33    12    13   ar
    34    22    16   ar
    35    30    25   ar
    36    13     4   ar
    37    11     6   ar
    38    34    35    1
@<TRIPOS>MOLECULE
*****
 35 38 0 0 0
SMALL
GASTEIGER

@<TRIPOS>ATOM
      1 N          -9.8327  -11.6533   32.1851 N.am    1  UNL1       -0.2685
      2 C         -10.4293  -11.2556   30.9406 C.2     1  UNL1        0.2672
      3 O         -10.9960  -12.1205   30.2198 O.2     1  UNL1       -0.2682
      4 C         -10.3873   -9.8409   30.5215 C.ar    1  UNL1        0.1347
      5 C         -11.0078   -8.8375   31.2825 C.ar    1  UNL1        0.0238
      6 C         -10.9096   -7.5011   30.8733 C.ar    1  UNL1        0.0031
      7 C         -11.5137   -6.4745   31.6158 C.ar    1  UNL1        0.0001
      8 C         -11.4022   -5.1458   31.1945 C.ar    1  UNL1        0.0000
      9 C         -10.6890   -4.8330   30.0335 C.ar    1  UNL1        0.0000
     10 C         -10.0827   -5.8469   29.2858 C.ar    1  UNL1        0.0015
     11 C         -10.1890   -7.1830   29.7000 C.ar    1  UNL1        0.0192
     12 C          -9.5902   -8.2163   28.9701 C.ar    1  UNL1        0.0989
     13 N          -9.7023   -9.5018   29.3944 N.ar    1  UNL1       -0.2393
     14 C          -9.7794  -11.6905   34.6638 C.3     1  UNL1        0.0265
     15 C         -10.6527  -11.7752   33.4037 C.3     1  UNL1        0.1007
     16 C         -11.5158  -13.0279   33.3437 C.ar    1  UNL1        0.0234
     17 C         -12.6053  -13.1292   32.4529 C.ar    1  UNL1        0.0019
     18 C         -13.4403  -14.2493   32.4752 C.ar    1  UNL1        0.0295
     19 C         -13.2103  -15.2773   33.3904 C.ar    1  UNL1        0.1424
     20 F         -14.0265  -16.3595   33.4141 F       1  UNL1       -0.2041
     21 C         -12.1471  -15.1843   34.2900 C.ar    1  UNL1        0.0590
     22 C         -11.3075  -14.0661   34.2759 C.ar    1  UNL1        0.1399
     23 F         -10.3048  -13.9903   35.1873 F       1  UNL1       -0.2044
     24 C          -8.3800  -11.8554   32.2425 C.3     1  UNL1        0.1211
     25 C          -7.6565  -10.5937   31.8277 C.ar    1  UNL1        0.0033
     26 C          -7.7644   -9.4809   32.6768 C.ar    1  UNL1       -0.0022
     27 C          -7.1689   -8.2697   32.3428 C.ar    1  UNL1       -0.0000
     28 C          -6.4398   -8.1518   31.1644 C.ar    1  UNL1        0.0068
     29 C          -6.2861   -9.2494   30.3022 C.ar    1  UNL1        0.0806
     30 C          -6.9139  -10.4830   30.6206 C.ar    1  UNL1        0.0339
     31 I          -6.8201  -12.1216   29.2409 I       1  UNL1       -0.0426
     32 C          -5.4587   -9.0657   29.0895 C.2     1  UNL1        0.3384
     33 O          -4.2016   -9.1151   29.1729 O.2     1  UNL1       -0.2451
     34 O          -6.0527   -8.9004   27.8421 O.3     1  UNL1       -0.4771
     35 H          -5.4889   -8.7940   27.0072 H       1  UNL1        0.2954
@<TRIPOS>BOND
     1    14    15    1
     2    15    16    1
     3    16    17   ar
     4    17    18   ar
     5    18    19   ar
     6    19    20    1
     7    19    21   ar
     8    21    22   ar
     9    22    23    1
    10    15     1    1
    11     1    24    1
    12    24    25    1
    13    25    26   ar
    14    26    27   ar
    15    27    28   ar
    16    28    29   ar
    17    29    32    1
    18    32    33    2
    19    32    34    1
    20    29    30   ar
    21    30    31    1
    22     1     2   am
    23     2     3    2
    24     2     4    1
    25     4     5   ar
    26     5     6   ar
    27     6     7   ar
    28     7     8   ar
    29     8     9   ar
    30     9    10   ar
    31    10    11   ar
    32    11    12   ar
    33    12    13   ar
    34    22    16   ar
    35    30    25   ar
    36    13     4   ar
    37    11     6   ar
    38    34    35    1
@<TRIPOS>MOLECULE
*****
 35 38 0 0 0
SMALL
GASTEIGER

@<TRIPOS>ATOM
      1 N         -10.0191  -10.1341   30.9856 N.am    1  UNL1       -0.2685
      2 C          -8.6701  -10.3888   30.5638 C.2     1  UNL1        0.2672
      3 O          -8.3970  -11.4710   29.9781 O.2     1  UNL1       -0.2682
      4 C          -7.6190   -9.3810   30.8053 C.ar    1  UNL1        0.1347
      5 C          -7.0032   -9.2581   32.0610 C.ar    1  UNL1        0.0238
      6 C          -5.9801   -8.3173   32.2385 C.ar    1  UNL1        0.0031
      7 C          -5.3408   -8.1746   33.4799 C.ar    1  UNL1        0.0001
      8 C          -4.3190   -7.2331   33.6379 C.ar    1  UNL1        0.0000
      9 C          -3.9289   -6.4305   32.5618 C.ar    1  UNL1        0.0000
     10 C          -4.5581   -6.5637   31.3205 C.ar    1  UNL1        0.0015
     11 C          -5.5844   -7.5052   31.1519 C.ar    1  UNL1        0.0192
     12 C          -6.2291   -7.6593   29.9192 C.ar    1  UNL1        0.0989
     13 N          -7.2162   -8.5817   29.7789 N.ar    1  UNL1       -0.2393
     14 C         -10.7728  -10.1298   28.6233 C.3     1  UNL1        0.0265
     15 C         -11.0089   -9.5873   30.0403 C.3     1  UNL1        0.1007
     16 C         -11.0347   -8.0669   30.1140 C.ar    1  UNL1        0.0234
     17 C         -10.0880   -7.2803   29.4242 C.ar    1  UNL1        0.0019
     18 C         -10.0717   -5.8914   29.5759 C.ar    1  UNL1        0.0295
     19 C         -10.9882   -5.2677   30.4234 C.ar    1  UNL1        0.1424
     20 F         -10.9653   -3.9205   30.5736 F       1  UNL1       -0.2041
     21 C         -11.9201   -6.0332   31.1261 C.ar    1  UNL1        0.0590
     22 C         -11.9423   -7.4240   30.9819 C.ar    1  UNL1        0.1399
     23 F         -12.8374   -8.1418   31.7066 F       1  UNL1       -0.2044
     24 C         -10.3743  -10.3482   32.3937 C.3     1  UNL1        0.1211
     25 C         -11.3930  -11.4595   32.5162 C.ar    1  UNL1        0.0033
     26 C         -12.5420  -11.3708   31.7145 C.ar    1  UNL1       -0.0022
     27 C         -13.5479  -12.3266   31.8031 C.ar    1  UNL1       -0.0000
     28 C         -13.4175  -13.3979   32.6803 C.ar    1  UNL1        0.0068
     29 C         -12.2710  -13.5364   33.4792 C.ar    1  UNL1        0.0806
     30 C         -11.2507  -12.5504   33.4164 C.ar    1  UNL1        0.0339
     31 I          -9.5678  -12.6626   34.7403 I       1  UNL1       -0.0426
     32 C         -12.1781  -14.7250   34.3554 C.2     1  UNL1        0.3384
     33 O         -12.5279  -14.6438   35.5640 O.2     1  UNL1       -0.2451
     34 O         -11.7669  -15.9529   33.8462 O.3     1  UNL1       -0.4771
     35 H         -11.7210  -16.7731   34.4391 H       1  UNL1        0.2954
@<TRIPOS>BOND
     1    14    15    1
     2    15    16    1
     3    16    17   ar
     4    17    18   ar
     5    18    19   ar
     6    19    20    1
     7    19    21   ar
     8    21    22   ar
     9    22    23    1
    10    15     1    1
    11     1    24    1
    12    24    25    1
    13    25    26   ar
    14    26    27   ar
    15    27    28   ar
    16    28    29   ar
    17    29    32    1
    18    32    33    2
    19    32    34    1
    20    29    30   ar
    21    30    31    1
    22     1     2   am
    23     2     3    2
    24     2     4    1
    25     4     5   ar
    26     5     6   ar
    27     6     7   ar
    28     7     8   ar
    29     8     9   ar
    30     9    10   ar
    31    10    11   ar
    32    11    12   ar
    33    12    13   ar
    34    22    16   ar
    35    30    25   ar
    36    13     4   ar
    37    11     6   ar
    38    34    35    1
@<TRIPOS>MOLECULE
*****
 35 38 0 0 0
SMALL
GASTEIGER

@<TRIPOS>ATOM
      1 N         -10.1689   -9.1933   31.7905 N.am    1  UNL1       -0.2685
      2 C         -10.0282  -10.1805   32.8242 C.2     1  UNL1        0.2672
      3 O          -9.4527   -9.8722   33.9023 O.2     1  UNL1       -0.2682
      4 C         -10.5676  -11.5398   32.6242 C.ar    1  UNL1        0.1347
      5 C         -11.1203  -12.2677   33.6898 C.ar    1  UNL1        0.0238
      6 C         -11.6602  -13.5384   33.4508 C.ar    1  UNL1        0.0031
      7 C         -12.2253  -14.2883   34.4941 C.ar    1  UNL1        0.0001
      8 C         -12.7630  -15.5532   34.2365 C.ar    1  UNL1        0.0000
      9 C         -12.7411  -16.0768   32.9404 C.ar    1  UNL1        0.0000
     10 C         -12.1811  -15.3391   31.8932 C.ar    1  UNL1        0.0015
     11 C         -11.6389  -14.0692   32.1413 C.ar    1  UNL1        0.0192
     12 C         -11.0739  -13.3099   31.1102 C.ar    1  UNL1        0.0989
     13 N         -10.5604  -12.0804   31.3743 N.ar    1  UNL1       -0.2393
     14 C         -12.6088   -8.9079   31.4529 C.3     1  UNL1        0.0265
     15 C         -11.2824   -8.2284   31.8230 C.3     1  UNL1        0.1007
     16 C         -10.9608   -7.0125   30.9652 C.ar    1  UNL1        0.0234
     17 C         -10.0764   -7.0981   29.8691 C.ar    1  UNL1        0.0019
     18 C          -9.7233   -5.9538   29.1492 C.ar    1  UNL1        0.0295
     19 C         -10.2352   -4.7086   29.5163 C.ar    1  UNL1        0.1424
     20 F          -9.8852   -3.5993   28.8199 F       1  UNL1       -0.2041
     21 C         -11.0976   -4.6044   30.6088 C.ar    1  UNL1        0.0590
     22 C         -11.4549   -5.7442   31.3361 C.ar    1  UNL1        0.1399
     23 F         -12.2668   -5.6033   32.4144 F       1  UNL1       -0.2044
     24 C          -9.2351   -9.2141   30.6582 C.3     1  UNL1        0.1211
     25 C          -7.8276   -9.4832   31.1419 C.ar    1  UNL1        0.0033
     26 C          -7.3198  -10.7789   30.9567 C.ar    1  UNL1       -0.0022
     27 C          -6.0528  -11.1199   31.4167 C.ar    1  UNL1       -0.0000
     28 C          -5.2622  -10.1694   32.0537 C.ar    1  UNL1        0.0068
     29 C          -5.7238   -8.8555   32.2337 C.ar    1  UNL1        0.0806
     30 C          -7.0274   -8.5048   31.7925 C.ar    1  UNL1        0.0339
     31 I          -7.8069   -6.5489   32.1981 I       1  UNL1       -0.0426
     32 C          -4.8120   -7.8844   32.8777 C.2     1  UNL1        0.3384
     33 O          -4.3201   -6.9405   32.2017 O.2     1  UNL1       -0.2451
     34 O          -4.5376   -7.9620   34.2395 O.3     1  UNL1       -0.4771
     35 H          -3.9293   -7.2869   34.6872 H       1  UNL1        0.2954
@<TRIPOS>BOND
     1    14    15    1
     2    15    16    1
     3    16    17   ar
     4    17    18   ar
     5    18    19   ar
     6    19    20    1
     7    19    21   ar
     8    21    22   ar
     9    22    23    1
    10    15     1    1
    11     1    24    1
    12    24    25    1
    13    25    26   ar
    14    26    27   ar
    15    27    28   ar
    16    28    29   ar
    17    29    32    1
    18    32    33    2
    19    32    34    1
    20    29    30   ar
    21    30    31    1
    22     1     2   am
    23     2     3    2
    24     2     4    1
    25     4     5   ar
    26     5     6   ar
    27     6     7   ar
    28     7     8   ar
    29     8     9   ar
    30     9    10   ar
    31    10    11   ar
    32    11    12   ar
    33    12    13   ar
    34    22    16   ar
    35    30    25   ar
    36    13     4   ar
    37    11     6   ar
    38    34    35    1
