@<TRIPOS>MOLECULE
*****
 45 51 0 0 0
SMALL
GASTEIGER

@<TRIPOS>ATOM
      1 C         -10.6690   -7.4887   29.7399 C.3     1  UNL1        0.0817
      2 C         -10.0950   -8.0574   28.4231 C.3     1  UNL1        0.0252
      3 C         -10.5176   -9.5402   28.3577 C.3     1  UNL1        0.0278
      4 C         -11.0820   -9.8150   29.7033 C.ar    1  UNL1       -0.0248
      5 C         -11.4592  -11.0586   30.2130 C.ar    1  UNL1       -0.0045
      6 C         -11.9610  -11.1358   31.5296 C.ar    1  UNL1       -0.0002
      7 C         -12.0497   -9.9596   32.3080 C.ar    1  UNL1       -0.0003
      8 C         -11.6499   -8.7250   31.7784 C.ar    1  UNL1       -0.0033
      9 C         -11.1550   -8.6824   30.4741 C.ar    1  UNL1       -0.0117
     10 C          -9.8054   -5.4203   30.9354 C.3     1  UNL1        0.1158
     11 N          -8.7665   -4.9884   31.6931 N.3     1  UNL1       -0.2851
     12 C          -7.9649   -6.0619   31.7553 C.3     1  UNL1        0.0910
     13 C          -6.7655   -6.1662   32.4424 C.3     1  UNL1        0.1018
     14 C          -6.0971   -7.3977   32.3902 C.3     1  UNL1        0.3136
     15 N          -6.6092   -8.4527   31.6674 N.am    1  UNL1       -0.1293
     16 C          -7.8002   -8.3242   30.9852 C.2     1  UNL1        0.4047
     17 O          -8.2478   -9.2844   30.3094 O.2     1  UNL1       -0.2174
     18 C          -8.4901   -7.1024   31.0511 C.3     1  UNL1        0.2038
     19 N          -9.6770   -6.7154   30.5178 N.3     1  UNL1       -0.2473
     20 H          -9.0818   -4.7131   32.6232 H       1  UNL1        0.1244
     21 C         -10.6790   -3.7663   29.2843 C.3     1  UNL1        0.0029
     22 C         -10.9499   -4.5089   30.5886 C.3     1  UNL1        0.0326
     23 C          -5.8779   -9.7321   31.6489 C.3     1  UNL1        0.3404
     24 C          -5.3644  -10.0314   30.2557 C.ar    1  UNL1        0.0640
     25 C          -4.2041   -9.3708   29.8143 C.ar    1  UNL1        0.0031
     26 C          -3.6842   -9.6179   28.5419 C.ar    1  UNL1       -0.0001
     27 C          -4.3168  -10.5246   27.6916 C.ar    1  UNL1        0.0007
     28 C          -5.4694  -11.1904   28.1118 C.ar    1  UNL1        0.0102
     29 C          -5.9984  -10.9574   29.3889 C.ar    1  UNL1        0.0710
     30 C          -7.1865  -11.6796   29.7760 C.1     1  UNL1        0.1003
     31 N          -8.1404  -12.2582   30.0837 N.1     1  UNL1       -0.1908
     32 C         -12.3335  -12.4463   32.1152 C.ar    1  UNL1        0.0030
     33 C         -13.5342  -13.0439   31.6939 C.ar    1  UNL1        0.0006
     34 C         -13.9908  -14.2219   32.2836 C.ar    1  UNL1        0.0059
     35 C         -13.2507  -14.8276   33.2987 C.ar    1  UNL1        0.0216
     36 S         -13.8417  -16.3380   34.0561 S.3     1  UNL1       -0.1414
     37 C         -12.0413  -14.2636   33.7136 C.ar    1  UNL1        0.0090
     38 C         -11.5589  -13.0809   33.1236 C.ar    1  UNL1        0.0376
     39 H         -13.1673  -17.1375   33.1143 H       1  UNL1        0.1071
     40 C         -10.2253  -12.5766   33.5311 C.ar    1  UNL1        0.1806
     41 N          -9.7658  -12.5510   34.7972 N.ar    1  UNL1       -0.1084
     42 N          -8.5633  -11.9991   34.7166 N.ar    1  UNL1       -0.0229
     43 N          -8.2915  -11.6904   33.4577 N.ar    1  UNL1       -0.0464
     44 N          -9.3165  -12.0371   32.7009 N.ar    1  UNL1       -0.2388
     45 H          -9.3693  -11.9163   31.6654 H       1  UNL1        0.1923
@<TRIPOS>BOND
     1    21    22    1
     2    22    10    1
     3    10    11    1
     4    11    12    1
     5    12    13    1
     6    13    14    1
     7    14    15    1
     8    15    23    1
     9    23    24    1
    10    24    25   ar
    11    25    26   ar
    12    26    27   ar
    13    27    28   ar
    14    28    29   ar
    15    29    30    1
    16    30    31    3
    17    15    16    1
    18    16    17    2
    19    16    18    1
    20    18    19    1
    21    19     1    1
    22     1     2    1
    23     2     3    1
    24     3     4    1
    25     4     5   ar
    26     5     6   ar
    27     6    32    1
    28    32    33   ar
    29    33    34   ar
    30    34    35   ar
    31    35    36    1
    32    35    37   ar
    33    37    38   ar
    34    38    40    1
    35    40    41   ar
    36    41    42   ar
    37    42    43   ar
    38    43    44   ar
    39     6     7   ar
    40     7     8   ar
    41     8     9   ar
    42    19    10    1
    43     9     1    1
    44    18    12    1
    45     9     4   ar
    46    29    24   ar
    47    38    32   ar
    48    44    40   ar
    49    36    39    1
    50    44    45    1
    51    11    20    1
@<TRIPOS>MOLECULE
*****
 45 51 0 0 0
SMALL
GASTEIGER

@<TRIPOS>ATOM
      1 C         -10.1575  -18.8416   22.8122 C.3     1  UNL1        0.0817
      2 C         -10.0538  -20.1414   23.6408 C.3     1  UNL1        0.0252
      3 C          -9.7695  -19.7186   25.0975 C.3     1  UNL1        0.0278
      4 C          -9.4867  -18.2640   25.0031 C.ar    1  UNL1       -0.0248
      5 C          -9.0124  -17.4372   26.0230 C.ar    1  UNL1       -0.0045
      6 C          -8.7795  -16.0731   25.7466 C.ar    1  UNL1       -0.0002
      7 C          -9.0097  -15.5807   24.4421 C.ar    1  UNL1       -0.0003
      8 C          -9.4713  -16.4349   23.4313 C.ar    1  UNL1       -0.0033
      9 C          -9.6890  -17.7795   23.7356 C.ar    1  UNL1       -0.0117
     10 C          -9.8654  -18.8535   20.2888 C.3     1  UNL1        0.1158
     11 N          -8.9046  -18.8397   19.3314 N.3     1  UNL1       -0.2851
     12 C          -7.7657  -18.8572   20.0395 C.3     1  UNL1        0.0910
     13 C          -6.4737  -18.8232   19.5383 C.3     1  UNL1        0.1018
     14 C          -5.4218  -18.8271   20.4654 C.3     1  UNL1        0.3136
     15 N          -5.6698  -18.8812   21.8195 N.am    1  UNL1       -0.1293
     16 C          -6.9629  -18.9221   22.2954 C.2     1  UNL1        0.4047
     17 O          -7.1791  -18.9951   23.5311 O.2     1  UNL1       -0.2174
     18 C          -8.0243  -18.8938   21.3758 C.3     1  UNL1        0.2038
     19 N          -9.3691  -18.8874   21.5618 N.3     1  UNL1       -0.2473
     20 H          -8.9681  -17.9960   18.7616 H       1  UNL1        0.1244
     21 C         -11.9390  -17.4782   20.1029 C.3     1  UNL1        0.0029
     22 C         -11.3253  -18.8636   19.9288 C.3     1  UNL1        0.0326
     23 C          -4.5336  -18.8730   22.7580 C.3     1  UNL1        0.3404
     24 C          -3.2347  -18.6266   22.0188 C.ar    1  UNL1        0.0640
     25 C          -2.3752  -19.7169   21.7951 C.ar    1  UNL1        0.0031
     26 C          -1.1700  -19.5451   21.1108 C.ar    1  UNL1       -0.0001
     27 C          -0.8045  -18.2829   20.6435 C.ar    1  UNL1        0.0007
     28 C          -1.6444  -17.1885   20.8554 C.ar    1  UNL1        0.0102
     29 C          -2.8604  -17.3475   21.5347 C.ar    1  UNL1        0.0710
     30 C          -3.6951  -16.1845   21.7181 C.1     1  UNL1        0.1003
     31 N          -4.3654  -15.2521   21.8623 N.1     1  UNL1       -0.1908
     32 C          -8.2385  -15.1764   26.7965 C.ar    1  UNL1        0.0030
     33 C          -9.1458  -14.5683   27.6816 C.ar    1  UNL1        0.0006
     34 C          -8.7100  -13.6347   28.6209 C.ar    1  UNL1        0.0059
     35 C          -7.3585  -13.2991   28.6976 C.ar    1  UNL1        0.0216
     36 S          -6.8030  -12.0974   29.9023 S.3     1  UNL1       -0.1414
     37 C          -6.4369  -13.9120   27.8444 C.ar    1  UNL1        0.0090
     38 C          -6.8558  -14.8640   26.8969 C.ar    1  UNL1        0.0376
     39 H          -6.5912  -13.0917   30.8759 H       1  UNL1        0.1071
     40 C          -5.8276  -15.5555   26.0824 C.ar    1  UNL1        0.1806
     41 N          -5.0201  -16.5356   26.5321 N.ar    1  UNL1       -0.1084
     42 N          -4.2427  -16.8414   25.5029 N.ar    1  UNL1       -0.0229
     43 N          -4.5498  -16.0806   24.4632 N.ar    1  UNL1       -0.0464
     44 N          -5.5326  -15.2671   24.8033 N.ar    1  UNL1       -0.2388
     45 H          -5.9784  -14.5640   24.1735 H       1  UNL1        0.1923
@<TRIPOS>BOND
     1    21    22    1
     2    22    10    1
     3    10    11    1
     4    11    12    1
     5    12    13    1
     6    13    14    1
     7    14    15    1
     8    15    23    1
     9    23    24    1
    10    24    25   ar
    11    25    26   ar
    12    26    27   ar
    13    27    28   ar
    14    28    29   ar
    15    29    30    1
    16    30    31    3
    17    15    16    1
    18    16    17    2
    19    16    18    1
    20    18    19    1
    21    19     1    1
    22     1     2    1
    23     2     3    1
    24     3     4    1
    25     4     5   ar
    26     5     6   ar
    27     6    32    1
    28    32    33   ar
    29    33    34   ar
    30    34    35   ar
    31    35    36    1
    32    35    37   ar
    33    37    38   ar
    34    38    40    1
    35    40    41   ar
    36    41    42   ar
    37    42    43   ar
    38    43    44   ar
    39     6     7   ar
    40     7     8   ar
    41     8     9   ar
    42    19    10    1
    43     9     1    1
    44    18    12    1
    45     9     4   ar
    46    29    24   ar
    47    38    32   ar
    48    44    40   ar
    49    36    39    1
    50    44    45    1
    51    11    20    1
@<TRIPOS>MOLECULE
*****
 45 51 0 0 0
SMALL
GASTEIGER

@<TRIPOS>ATOM
      1 C         -10.2694   -7.1690   29.4680 C.3     1  UNL1        0.0817
      2 C          -9.9011   -7.8305   28.1213 C.3     1  UNL1        0.0252
      3 C         -10.4465   -9.2733   28.1709 C.3     1  UNL1        0.0278
      4 C         -10.8699   -9.4515   29.5828 C.ar    1  UNL1       -0.0248
      5 C         -11.2838  -10.6397   30.1874 C.ar    1  UNL1       -0.0045
      6 C         -11.6328  -10.6275   31.5546 C.ar    1  UNL1       -0.0002
      7 C         -11.5348   -9.4213   32.2846 C.ar    1  UNL1       -0.0003
      8 C         -11.1015   -8.2447   31.6581 C.ar    1  UNL1       -0.0033
      9 C         -10.7607   -8.2904   30.3054 C.ar    1  UNL1       -0.0117
     10 C          -8.9923   -5.1017   30.2084 C.3     1  UNL1        0.1158
     11 N          -7.8810   -4.7282   30.8906 N.3     1  UNL1       -0.2851
     12 C          -7.3147   -5.8989   31.2189 C.3     1  UNL1        0.0910
     13 C          -6.1562   -6.0849   31.9569 C.3     1  UNL1        0.1018
     14 C          -5.7534   -7.4051   32.2037 C.3     1  UNL1        0.3136
     15 N          -6.4758   -8.4706   31.7131 N.am    1  UNL1       -0.1293
     16 C          -7.6211   -8.2621   30.9749 C.2     1  UNL1        0.4047
     17 O          -8.2607   -9.2395   30.5116 O.2     1  UNL1       -0.2174
     18 C          -8.0468   -6.9437   30.7428 C.3     1  UNL1        0.2038
     19 N          -9.1342   -6.4561   30.0926 N.3     1  UNL1       -0.2473
     20 H          -8.1259   -4.1939   31.7243 H       1  UNL1        0.1244
     21 C         -11.3454   -4.2733   30.1594 C.3     1  UNL1        0.0029
     22 C          -9.9297   -4.0806   29.6256 C.3     1  UNL1        0.0326
     23 C          -6.0210   -9.8415   32.0057 C.3     1  UNL1        0.3404
     24 C          -6.6204  -10.8228   31.0197 C.ar    1  UNL1        0.0640
     25 C          -7.8430  -11.4361   31.3459 C.ar    1  UNL1        0.0031
     26 C          -8.4425  -12.3413   30.4675 C.ar    1  UNL1       -0.0001
     27 C          -7.8287  -12.6493   29.2536 C.ar    1  UNL1        0.0007
     28 C          -6.6150  -12.0505   28.9118 C.ar    1  UNL1        0.0102
     29 C          -6.0053  -11.1348   29.7807 C.ar    1  UNL1        0.0710
     30 C          -4.7559  -10.5380   29.3737 C.1     1  UNL1        0.1003
     31 N          -3.7550  -10.0592   29.0445 N.1     1  UNL1       -0.1908
     32 C         -12.0385  -11.8801   32.2369 C.ar    1  UNL1        0.0030
     33 C         -13.1830  -12.5493   31.7694 C.ar    1  UNL1        0.0006
     34 C         -13.6750  -13.6719   32.4339 C.ar    1  UNL1        0.0059
     35 C         -13.0266  -14.1501   33.5722 C.ar    1  UNL1        0.0216
     36 S         -13.6631  -15.5895   34.4250 S.3     1  UNL1       -0.1414
     37 C         -11.8722  -13.5147   34.0377 C.ar    1  UNL1        0.0090
     38 C         -11.3546  -12.3868   33.3749 C.ar    1  UNL1        0.0376
     39 H         -12.8879  -16.4638   33.6402 H       1  UNL1        0.1071
     40 C         -10.0750  -11.8083   33.8511 C.ar    1  UNL1        0.1806
     41 N          -9.0537  -12.5189   34.3677 N.ar    1  UNL1       -0.1084
     42 N          -8.1359  -11.6188   34.6910 N.ar    1  UNL1       -0.0229
     43 N          -8.5709  -10.4035   34.3941 N.ar    1  UNL1       -0.0464
     44 N          -9.7807  -10.4971   33.8735 N.ar    1  UNL1       -0.2388
     45 H         -10.3578   -9.6932   33.5414 H       1  UNL1        0.1923
@<TRIPOS>BOND
     1    21    22    1
     2    22    10    1
     3    10    11    1
     4    11    12    1
     5    12    13    1
     6    13    14    1
     7    14    15    1
     8    15    23    1
     9    23    24    1
    10    24    25   ar
    11    25    26   ar
    12    26    27   ar
    13    27    28   ar
    14    28    29   ar
    15    29    30    1
    16    30    31    3
    17    15    16    1
    18    16    17    2
    19    16    18    1
    20    18    19    1
    21    19     1    1
    22     1     2    1
    23     2     3    1
    24     3     4    1
    25     4     5   ar
    26     5     6   ar
    27     6    32    1
    28    32    33   ar
    29    33    34   ar
    30    34    35   ar
    31    35    36    1
    32    35    37   ar
    33    37    38   ar
    34    38    40    1
    35    40    41   ar
    36    41    42   ar
    37    42    43   ar
    38    43    44   ar
    39     6     7   ar
    40     7     8   ar
    41     8     9   ar
    42    19    10    1
    43     9     1    1
    44    18    12    1
    45     9     4   ar
    46    29    24   ar
    47    38    32   ar
    48    44    40   ar
    49    36    39    1
    50    44    45    1
    51    11    20    1
@<TRIPOS>MOLECULE
*****
 45 51 0 0 0
SMALL
GASTEIGER

@<TRIPOS>ATOM
      1 C          -9.5708  -12.1290   31.7350 C.3     1  UNL1        0.0817
      2 C          -9.4069  -12.4458   30.2317 C.3     1  UNL1        0.0252
      3 C          -8.0595  -11.8346   29.7929 C.3     1  UNL1        0.0278
      4 C          -7.6400  -11.0118   30.9555 C.ar    1  UNL1       -0.0248
      5 C          -6.5648  -10.1230   31.0055 C.ar    1  UNL1       -0.0045
      6 C          -6.3245   -9.4046   32.1961 C.ar    1  UNL1       -0.0002
      7 C          -7.1878   -9.5839   33.3005 C.ar    1  UNL1       -0.0003
      8 C          -8.2700  -10.4710   33.2199 C.ar    1  UNL1       -0.0033
      9 C          -8.4827  -11.1642   32.0274 C.ar    1  UNL1       -0.0117
     10 C         -11.8438  -12.1840   32.8679 C.3     1  UNL1        0.1158
     11 N         -12.9535  -11.4275   33.0582 N.3     1  UNL1       -0.2851
     12 C         -12.6899  -10.3145   32.3577 C.3     1  UNL1        0.0910
     13 C         -13.4964   -9.1929   32.2430 C.3     1  UNL1        0.1018
     14 C         -13.0120   -8.1260   31.4728 C.3     1  UNL1        0.3136
     15 N         -11.7894   -8.2037   30.8427 N.am    1  UNL1       -0.1293
     16 C         -11.0072   -9.3323   30.9643 C.2     1  UNL1        0.4047
     17 O          -9.9040   -9.4036   30.3668 O.2     1  UNL1       -0.2174
     18 C         -11.4724  -10.3970   31.7536 C.3     1  UNL1        0.2038
     19 N         -10.9061  -11.5894   32.0708 N.3     1  UNL1       -0.2473
     20 H         -13.0857  -11.2145   34.0470 H       1  UNL1        0.1244
     21 C         -12.4521  -14.5914   32.6243 C.3     1  UNL1        0.0029
     22 C         -11.7216  -13.5554   33.4722 C.3     1  UNL1        0.0326
     23 C         -11.3155   -7.0542   30.0517 C.3     1  UNL1        0.3404
     24 C          -9.9997   -6.5390   30.5974 C.ar    1  UNL1        0.0640
     25 C          -9.2703   -7.3628   31.4730 C.ar    1  UNL1        0.0031
     26 C          -8.0472   -6.9389   31.9969 C.ar    1  UNL1       -0.0001
     27 C          -7.5371   -5.6861   31.6572 C.ar    1  UNL1        0.0007
     28 C          -8.2462   -4.8541   30.7893 C.ar    1  UNL1        0.0102
     29 C          -9.4719   -5.2695   30.2504 C.ar    1  UNL1        0.0710
     30 C         -10.1587   -4.3739   29.3509 C.1     1  UNL1        0.1003
     31 N         -10.7073   -3.6538   28.6299 N.1     1  UNL1       -0.1908
     32 C          -5.2149   -8.4234   32.2697 C.ar    1  UNL1        0.0030
     33 C          -4.7853   -8.0020   33.5401 C.ar    1  UNL1        0.0006
     34 C          -3.8203   -7.0044   33.6729 C.ar    1  UNL1        0.0059
     35 C          -3.2617   -6.4170   32.5380 C.ar    1  UNL1        0.0216
     36 S          -2.0257   -5.1341   32.7122 S.3     1  UNL1       -0.1414
     37 C          -3.6562   -6.8405   31.2660 C.ar    1  UNL1        0.0090
     38 C          -4.6211   -7.8529   31.1116 C.ar    1  UNL1        0.0376
     39 H          -0.9760   -6.0718   32.7193 H       1  UNL1        0.1071
     40 C          -4.9338   -8.3332   29.7440 C.ar    1  UNL1        0.1806
     41 N          -6.0789   -8.0786   29.0815 N.ar    1  UNL1       -0.1084
     42 N          -5.9577   -8.7159   27.9256 N.ar    1  UNL1       -0.0229
     43 N          -4.7922   -9.3432   27.8757 N.ar    1  UNL1       -0.0464
     44 N          -4.1388   -9.1226   29.0017 N.ar    1  UNL1       -0.2388
     45 H          -3.1887   -9.4905   29.2292 H       1  UNL1        0.1923
@<TRIPOS>BOND
     1    21    22    1
     2    22    10    1
     3    10    11    1
     4    11    12    1
     5    12    13    1
     6    13    14    1
     7    14    15    1
     8    15    23    1
     9    23    24    1
    10    24    25   ar
    11    25    26   ar
    12    26    27   ar
    13    27    28   ar
    14    28    29   ar
    15    29    30    1
    16    30    31    3
    17    15    16    1
    18    16    17    2
    19    16    18    1
    20    18    19    1
    21    19     1    1
    22     1     2    1
    23     2     3    1
    24     3     4    1
    25     4     5   ar
    26     5     6   ar
    27     6    32    1
    28    32    33   ar
    29    33    34   ar
    30    34    35   ar
    31    35    36    1
    32    35    37   ar
    33    37    38   ar
    34    38    40    1
    35    40    41   ar
    36    41    42   ar
    37    42    43   ar
    38    43    44   ar
    39     6     7   ar
    40     7     8   ar
    41     8     9   ar
    42    19    10    1
    43     9     1    1
    44    18    12    1
    45     9     4   ar
    46    29    24   ar
    47    38    32   ar
    48    44    40   ar
    49    36    39    1
    50    44    45    1
    51    11    20    1
@<TRIPOS>MOLECULE
*****
 45 51 0 0 0
SMALL
GASTEIGER

@<TRIPOS>ATOM
      1 C         -10.4918   -7.5065   29.4530 C.3     1  UNL1        0.0817
      2 C          -9.7551   -8.1589   28.2619 C.3     1  UNL1        0.0252
      3 C         -10.0910   -9.6646   28.3023 C.3     1  UNL1        0.0278
      4 C         -10.7773   -9.8471   29.6062 C.ar    1  UNL1       -0.0248
      5 C         -11.1403  -11.0587   30.1969 C.ar    1  UNL1       -0.0045
      6 C         -11.7718  -11.0437   31.4588 C.ar    1  UNL1       -0.0002
      7 C         -12.0020   -9.8079   32.1044 C.ar    1  UNL1       -0.0003
      8 C         -11.6140   -8.6057   31.4971 C.ar    1  UNL1       -0.0033
      9 C         -10.9888   -8.6543   30.2502 C.ar    1  UNL1       -0.0117
     10 C         -10.0430   -5.5603   31.0226 C.3     1  UNL1        0.1158
     11 N          -9.0351   -4.9470   31.6919 N.3     1  UNL1       -0.2851
     12 C          -7.9513   -5.6445   31.3206 C.3     1  UNL1        0.0910
     13 C          -6.6474   -5.4457   31.7471 C.3     1  UNL1        0.1018
     14 C          -5.6653   -6.3114   31.2449 C.3     1  UNL1        0.3136
     15 N          -5.9881   -7.3068   30.3489 N.am    1  UNL1       -0.1293
     16 C          -7.2905   -7.4815   29.9325 C.2     1  UNL1        0.4047
     17 O          -7.5718   -8.3769   29.0970 O.2     1  UNL1       -0.2174
     18 C          -8.2859   -6.6352   30.4484 C.3     1  UNL1        0.2038
     19 N          -9.6277   -6.6043   30.2444 N.3     1  UNL1       -0.2473
     20 H          -9.1783   -5.0032   32.7003 H       1  UNL1        0.1244
     21 C         -12.1453   -5.6709   32.3618 C.3     1  UNL1        0.0029
     22 C         -11.4620   -5.0759   31.1349 C.3     1  UNL1        0.0326
     23 C          -4.9251   -8.2001   29.8551 C.3     1  UNL1        0.3404
     24 C          -5.3873   -9.6423   29.8812 C.ar    1  UNL1        0.0640
     25 C          -5.7675  -10.2006   31.1146 C.ar    1  UNL1        0.0031
     26 C          -6.2098  -11.5230   31.1918 C.ar    1  UNL1       -0.0001
     27 C          -6.2754  -12.3072   30.0403 C.ar    1  UNL1        0.0007
     28 C          -5.9026  -11.7708   28.8067 C.ar    1  UNL1        0.0102
     29 C          -5.4633  -10.4428   28.7133 C.ar    1  UNL1        0.0710
     30 C          -5.0991   -9.9360   27.4120 C.1     1  UNL1        0.1003
     31 N          -4.8100   -9.5298   26.3676 N.1     1  UNL1       -0.1908
     32 C         -12.1346  -12.3145   32.1316 C.ar    1  UNL1        0.0030
     33 C         -13.3244  -12.9545   31.7433 C.ar    1  UNL1        0.0006
     34 C         -13.7729  -14.0938   32.4104 C.ar    1  UNL1        0.0059
     35 C         -13.0352  -14.6180   33.4715 C.ar    1  UNL1        0.0216
     36 S         -13.6157  -16.0787   34.3279 S.3     1  UNL1       -0.1414
     37 C         -11.8361  -14.0118   33.8558 C.ar    1  UNL1        0.0090
     38 C         -11.3620  -12.8675   33.1884 C.ar    1  UNL1        0.0376
     39 H         -12.9236  -16.9340   33.4500 H       1  UNL1        0.1071
     40 C         -10.0380  -12.3200   33.5706 C.ar    1  UNL1        0.1806
     41 N          -9.4829  -12.4305   34.7931 N.ar    1  UNL1       -0.1084
     42 N          -8.3310  -11.7799   34.7090 N.ar    1  UNL1       -0.0229
     43 N          -8.1812  -11.2826   33.4907 N.ar    1  UNL1       -0.0464
     44 N          -9.2366  -11.6028   32.7647 N.ar    1  UNL1       -0.2388
     45 H          -9.3790  -11.3470   31.7627 H       1  UNL1        0.1923
@<TRIPOS>BOND
     1    21    22    1
     2    22    10    1
     3    10    11    1
     4    11    12    1
     5    12    13    1
     6    13    14    1
     7    14    15    1
     8    15    23    1
     9    23    24    1
    10    24    25   ar
    11    25    26   ar
    12    26    27   ar
    13    27    28   ar
    14    28    29   ar
    15    29    30    1
    16    30    31    3
    17    15    16    1
    18    16    17    2
    19    16    18    1
    20    18    19    1
    21    19     1    1
    22     1     2    1
    23     2     3    1
    24     3     4    1
    25     4     5   ar
    26     5     6   ar
    27     6    32    1
    28    32    33   ar
    29    33    34   ar
    30    34    35   ar
    31    35    36    1
    32    35    37   ar
    33    37    38   ar
    34    38    40    1
    35    40    41   ar
    36    41    42   ar
    37    42    43   ar
    38    43    44   ar
    39     6     7   ar
    40     7     8   ar
    41     8     9   ar
    42    19    10    1
    43     9     1    1
    44    18    12    1
    45     9     4   ar
    46    29    24   ar
    47    38    32   ar
    48    44    40   ar
    49    36    39    1
    50    44    45    1
    51    11    20    1
