@<TRIPOS>MOLECULE
*****
 36 39 0 0 0
SMALL
GASTEIGER

@<TRIPOS>ATOM
      1 C         -28.9026   47.3321   -6.9280 C.2     1  UNL1        0.2702
      2 O         -29.7983   46.6302   -7.4695 O.2     1  UNL1       -0.2681
      3 N         -28.7883   48.7229   -7.2742 N.am    1  UNL1       -0.2685
      4 C         -28.4041   46.1574   -4.7485 C.ar    1  UNL1        0.1606
      5 C         -27.9645   46.7278   -5.9618 C.ar    1  UNL1        0.1684
      6 N         -26.6331   46.7709   -6.2403 N.ar    1  UNL1       -0.2362
      7 C         -25.6929   46.2890   -5.3895 C.ar    1  UNL1        0.0992
      8 C         -26.0754   45.7244   -4.1694 C.ar    1  UNL1        0.0221
      9 C         -25.1137   45.2414   -3.2695 C.ar    1  UNL1        0.0016
     10 C         -25.5120   44.6826   -2.0528 C.ar    1  UNL1        0.0001
     11 C         -26.8679   44.6005   -1.7286 C.ar    1  UNL1        0.0001
     12 C         -27.8349   45.0785   -2.6177 C.ar    1  UNL1        0.0031
     13 C         -27.4504   45.6479   -3.8457 C.ar    1  UNL1        0.0372
     14 C         -30.3700   47.0693   -3.5821 C.3     1  UNL1        0.2525
     15 O         -29.7659   46.1052   -4.4351 O.3     1  UNL1       -0.4698
     16 C         -28.4761   49.0669   -8.6754 C.3     1  UNL1        0.1007
     17 C         -28.5155   47.8332   -9.5899 C.3     1  UNL1        0.0265
     18 C         -27.1769   49.8574   -8.7736 C.ar    1  UNL1        0.0234
     19 C         -25.9591   49.3448   -8.2780 C.ar    1  UNL1        0.0019
     20 C         -24.7870   50.1029   -8.3451 C.ar    1  UNL1        0.0295
     21 C         -24.8096   51.3823   -8.9009 C.ar    1  UNL1        0.1424
     22 F         -23.6706   52.1152   -8.9637 F       1  UNL1       -0.2041
     23 C         -26.0056   51.9068   -9.3922 C.ar    1  UNL1        0.0590
     24 C         -27.1837   51.1556   -9.3295 C.ar    1  UNL1        0.1399
     25 F         -28.3271   51.6983   -9.8198 F       1  UNL1       -0.2044
     26 C         -29.2790   49.7221   -6.3069 C.3     1  UNL1        0.1207
     27 C         -28.1744   50.1802   -5.3882 C.ar    1  UNL1       -0.0021
     28 C         -27.4551   51.3487   -5.6772 C.ar    1  UNL1       -0.0026
     29 C         -26.3732   51.7244   -4.8798 C.ar    1  UNL1       -0.0001
     30 C         -25.9939   50.9368   -3.7904 C.ar    1  UNL1        0.0064
     31 C         -26.7081   49.7676   -3.4746 C.ar    1  UNL1        0.0752
     32 C         -27.8037   49.4016   -4.2782 C.ar    1  UNL1        0.0038
     33 C         -26.2938   48.8995   -2.3459 C.2     1  UNL1        0.3380
     34 O         -27.1647   48.2684   -1.6903 O.2     1  UNL1       -0.2451
     35 O         -24.9562   48.7645   -1.9759 O.3     1  UNL1       -0.4771
     36 H         -24.2174   49.3163   -2.3918 H       1  UNL1        0.2954
@<TRIPOS>BOND
     1    14    15    1
     2    15     4    1
     3     4     5   ar
     4     5     1    1
     5     1     2    2
     6     1     3   am
     7     3    26    1
     8    26    27    1
     9    27    28   ar
    10    28    29   ar
    11    29    30   ar
    12    30    31   ar
    13    31    33    1
    14    33    34    2
    15    33    35    1
    16    31    32   ar
    17     3    16    1
    18    16    17    1
    19    16    18    1
    20    18    19   ar
    21    19    20   ar
    22    20    21   ar
    23    21    22    1
    24    21    23   ar
    25    23    24   ar
    26    24    25    1
    27     5     6   ar
    28     6     7   ar
    29     7     8   ar
    30     8     9   ar
    31     9    10   ar
    32    10    11   ar
    33    11    12   ar
    34    12    13   ar
    35    13     4   ar
    36    32    27   ar
    37    24    18   ar
    38    13     8   ar
    39    35    36    1
@<TRIPOS>MOLECULE
*****
 36 39 0 0 0
SMALL
GASTEIGER

@<TRIPOS>ATOM
      1 C         -28.6478   49.0499   -9.7923 C.2     1  UNL1        0.2702
      2 O         -28.7217   48.4890  -10.9184 O.2     1  UNL1       -0.2681
      3 N         -29.2007   50.3659   -9.6202 N.am    1  UNL1       -0.2685
      4 C         -28.6666   47.4723   -7.8201 C.ar    1  UNL1        0.1606
      5 C         -27.9806   48.3714   -8.6639 C.ar    1  UNL1        0.1684
      6 N         -26.6763   48.6668   -8.4121 N.ar    1  UNL1       -0.2362
      7 C         -25.9952   48.1336   -7.3671 C.ar    1  UNL1        0.0992
      8 C         -26.6324   47.2465   -6.4948 C.ar    1  UNL1        0.0221
      9 C         -25.9478   46.7036   -5.3972 C.ar    1  UNL1        0.0016
     10 C         -26.5995   45.8208   -4.5330 C.ar    1  UNL1        0.0001
     11 C         -27.9332   45.4736   -4.7590 C.ar    1  UNL1        0.0001
     12 C         -28.6252   46.0083   -5.8495 C.ar    1  UNL1        0.0031
     13 C         -27.9846   46.9022   -6.7275 C.ar    1  UNL1        0.0372
     14 C         -30.3813   46.0500   -8.8660 C.3     1  UNL1        0.2525
     15 O         -30.0086   47.1556   -8.0532 O.3     1  UNL1       -0.4698
     16 C         -28.6306   51.4692  -10.4183 C.3     1  UNL1        0.1007
     17 C         -29.1632   51.4677  -11.8592 C.3     1  UNL1        0.0265
     18 C         -27.1093   51.4851  -10.3307 C.ar    1  UNL1        0.0234
     19 C         -26.3028   50.9492  -11.3573 C.ar    1  UNL1        0.0019
     20 C         -24.9104   50.9409  -11.2387 C.ar    1  UNL1        0.0295
     21 C         -24.3002   51.4601  -10.0966 C.ar    1  UNL1        0.1424
     22 F         -22.9491   51.4498   -9.9847 F       1  UNL1       -0.2041
     23 C         -25.0821   51.9904   -9.0697 C.ar    1  UNL1        0.0590
     24 C         -26.4764   52.0033   -9.1795 C.ar    1  UNL1        0.1399
     25 F         -27.2033   52.5296   -8.1612 F       1  UNL1       -0.2044
     26 C         -30.4822   50.4923   -8.9013 C.3     1  UNL1        0.1207
     27 C         -30.2654   50.5833   -7.4118 C.ar    1  UNL1       -0.0021
     28 C         -31.3618   50.5850   -6.5377 C.ar    1  UNL1       -0.0026
     29 C         -31.1687   50.7616   -5.1669 C.ar    1  UNL1       -0.0001
     30 C         -29.8822   50.9439   -4.6544 C.ar    1  UNL1        0.0064
     31 C         -28.7671   50.9336   -5.5106 C.ar    1  UNL1        0.0752
     32 C         -28.9701   50.7451   -6.8902 C.ar    1  UNL1        0.0038
     33 C         -27.3989   51.1657   -4.9876 C.2     1  UNL1        0.3380
     34 O         -26.7629   50.2163   -4.4577 O.2     1  UNL1       -0.2451
     35 O         -26.7894   52.4179   -5.0556 O.3     1  UNL1       -0.4771
     36 H         -27.2767   53.2446   -5.3756 H       1  UNL1        0.2954
@<TRIPOS>BOND
     1    14    15    1
     2    15     4    1
     3     4     5   ar
     4     5     1    1
     5     1     2    2
     6     1     3   am
     7     3    26    1
     8    26    27    1
     9    27    28   ar
    10    28    29   ar
    11    29    30   ar
    12    30    31   ar
    13    31    33    1
    14    33    34    2
    15    33    35    1
    16    31    32   ar
    17     3    16    1
    18    16    17    1
    19    16    18    1
    20    18    19   ar
    21    19    20   ar
    22    20    21   ar
    23    21    22    1
    24    21    23   ar
    25    23    24   ar
    26    24    25    1
    27     5     6   ar
    28     6     7   ar
    29     7     8   ar
    30     8     9   ar
    31     9    10   ar
    32    10    11   ar
    33    11    12   ar
    34    12    13   ar
    35    13     4   ar
    36    32    27   ar
    37    24    18   ar
    38    13     8   ar
    39    35    36    1
@<TRIPOS>MOLECULE
*****
 36 39 0 0 0
SMALL
GASTEIGER

@<TRIPOS>ATOM
      1 C         -29.5903   48.0833   -4.3008 C.2     1  UNL1        0.2702
      2 O         -29.9196   48.7243   -3.2669 O.2     1  UNL1       -0.2681
      3 N         -30.2951   46.8766   -4.6391 N.am    1  UNL1       -0.2685
      4 C         -28.4832   49.8304   -5.7502 C.ar    1  UNL1        0.1606
      5 C         -28.4766   48.5548   -5.1470 C.ar    1  UNL1        0.1684
      6 N         -27.4398   47.7056   -5.3829 N.ar    1  UNL1       -0.2362
      7 C         -26.3982   48.0306   -6.1889 C.ar    1  UNL1        0.0992
      8 C         -26.3627   49.2776   -6.8195 C.ar    1  UNL1        0.0221
      9 C         -25.3032   49.6200   -7.6729 C.ar    1  UNL1        0.0016
     10 C         -25.2838   50.8690   -8.2979 C.ar    1  UNL1        0.0001
     11 C         -26.3168   51.7819   -8.0742 C.ar    1  UNL1        0.0001
     12 C         -27.3774   51.4515   -7.2258 C.ar    1  UNL1        0.0031
     13 C         -27.4142   50.1959   -6.5915 C.ar    1  UNL1        0.0372
     14 C         -30.6550   50.7830   -6.4078 C.3     1  UNL1        0.2525
     15 O         -29.5389   50.7203   -5.5290 O.3     1  UNL1       -0.4698
     16 C         -30.2352   45.7475   -3.6900 C.3     1  UNL1        0.1007
     17 C         -31.0492   46.0260   -2.4173 C.3     1  UNL1        0.0265
     18 C         -28.7946   45.3340   -3.4141 C.ar    1  UNL1        0.0234
     19 C         -28.1359   45.6969   -2.2200 C.ar    1  UNL1        0.0019
     20 C         -26.8024   45.3385   -2.0046 C.ar    1  UNL1        0.0295
     21 C         -26.1036   44.6191   -2.9744 C.ar    1  UNL1        0.1424
     22 F         -24.8098   44.2737   -2.7622 F       1  UNL1       -0.2041
     23 C         -26.7378   44.2552   -4.1628 C.ar    1  UNL1        0.0590
     24 C         -28.0721   44.6093   -4.3873 C.ar    1  UNL1        0.1399
     25 F         -28.6559   44.2355   -5.5543 F       1  UNL1       -0.2044
     26 C         -31.2721   46.9289   -5.7426 C.3     1  UNL1        0.1207
     27 C         -30.7643   46.1914   -6.9560 C.ar    1  UNL1       -0.0021
     28 C         -31.3891   45.0082   -7.3754 C.ar    1  UNL1       -0.0026
     29 C         -30.8652   44.2755   -8.4414 C.ar    1  UNL1       -0.0001
     30 C         -29.7109   44.7113   -9.0960 C.ar    1  UNL1        0.0064
     31 C         -29.0747   45.9011   -8.7004 C.ar    1  UNL1        0.0752
     32 C         -29.6154   46.6387   -7.6310 C.ar    1  UNL1        0.0038
     33 C         -27.8262   46.3563   -9.3587 C.2     1  UNL1        0.3380
     34 O         -27.7016   47.5636   -9.6957 O.2     1  UNL1       -0.2451
     35 O         -26.7765   45.4792   -9.6285 O.3     1  UNL1       -0.4771
     36 H         -26.8472   44.4815   -9.4768 H       1  UNL1        0.2954
@<TRIPOS>BOND
     1    14    15    1
     2    15     4    1
     3     4     5   ar
     4     5     1    1
     5     1     2    2
     6     1     3   am
     7     3    26    1
     8    26    27    1
     9    27    28   ar
    10    28    29   ar
    11    29    30   ar
    12    30    31   ar
    13    31    33    1
    14    33    34    2
    15    33    35    1
    16    31    32   ar
    17     3    16    1
    18    16    17    1
    19    16    18    1
    20    18    19   ar
    21    19    20   ar
    22    20    21   ar
    23    21    22    1
    24    21    23   ar
    25    23    24   ar
    26    24    25    1
    27     5     6   ar
    28     6     7   ar
    29     7     8   ar
    30     8     9   ar
    31     9    10   ar
    32    10    11   ar
    33    11    12   ar
    34    12    13   ar
    35    13     4   ar
    36    32    27   ar
    37    24    18   ar
    38    13     8   ar
    39    35    36    1
@<TRIPOS>MOLECULE
*****
 36 39 0 0 0
SMALL
GASTEIGER

@<TRIPOS>ATOM
      1 C         -30.1301   49.0046   -4.8524 C.2     1  UNL1        0.2702
      2 O         -31.2304   49.4201   -4.3997 O.2     1  UNL1       -0.2681
      3 N         -29.6860   47.6773   -4.5235 N.am    1  UNL1       -0.2685
      4 C         -29.4526   49.9442   -7.0967 C.ar    1  UNL1        0.1606
      5 C         -29.2931   49.8799   -5.6963 C.ar    1  UNL1        0.1684
      6 N         -28.3100   50.6063   -5.0981 N.ar    1  UNL1       -0.2362
      7 C         -27.4582   51.3975   -5.7971 C.ar    1  UNL1        0.0992
      8 C         -27.5666   51.4870   -7.1878 C.ar    1  UNL1        0.0221
      9 C         -26.6795   52.2839   -7.9267 C.ar    1  UNL1        0.0016
     10 C         -26.7992   52.3605   -9.3163 C.ar    1  UNL1        0.0001
     11 C         -27.8028   51.6466   -9.9747 C.ar    1  UNL1        0.0001
     12 C         -28.6924   50.8495   -9.2486 C.ar    1  UNL1        0.0031
     13 C         -28.5831   50.7582   -7.8486 C.ar    1  UNL1        0.0372
     14 C         -31.5809   49.8340   -8.3276 C.3     1  UNL1        0.2525
     15 O         -30.4512   49.2038   -7.7372 O.3     1  UNL1       -0.4698
     16 C         -29.4379   47.3594   -3.1034 C.3     1  UNL1        0.1007
     17 C         -29.6228   48.5888   -2.2010 C.3     1  UNL1        0.0265
     18 C         -28.0938   46.6650   -2.9198 C.ar    1  UNL1        0.0234
     19 C         -28.0065   45.2908   -2.6107 C.ar    1  UNL1        0.0019
     20 C         -26.7641   44.6832   -2.4100 C.ar    1  UNL1        0.0295
     21 C         -25.5919   45.4332   -2.5085 C.ar    1  UNL1        0.1424
     22 F         -24.3884   44.8405   -2.3124 F       1  UNL1       -0.2041
     23 C         -25.6595   46.7941   -2.8093 C.ar    1  UNL1        0.0590
     24 C         -26.8982   47.4110   -3.0121 C.ar    1  UNL1        0.1399
     25 F         -26.9238   48.7360   -3.3053 F       1  UNL1       -0.2044
     26 C         -29.7924   46.6326   -5.5590 C.3     1  UNL1        0.1207
     27 C         -28.6411   46.7079   -6.5300 C.ar    1  UNL1       -0.0021
     28 C         -27.4369   47.3184   -6.1511 C.ar    1  UNL1       -0.0026
     29 C         -26.4037   47.4711   -7.0766 C.ar    1  UNL1       -0.0001
     30 C         -26.5621   47.0224   -8.3898 C.ar    1  UNL1        0.0064
     31 C         -27.7561   46.3965   -8.7888 C.ar    1  UNL1        0.0752
     32 C         -28.7890   46.2378   -7.8464 C.ar    1  UNL1        0.0038
     33 C         -27.9553   45.9507  -10.1891 C.2     1  UNL1        0.3380
     34 O         -28.8432   46.4945  -10.8979 O.2     1  UNL1       -0.2451
     35 O         -27.1888   44.9304  -10.7509 O.3     1  UNL1       -0.4771
     36 H         -26.5296   44.3841  -10.2121 H       1  UNL1        0.2954
@<TRIPOS>BOND
     1    14    15    1
     2    15     4    1
     3     4     5   ar
     4     5     1    1
     5     1     2    2
     6     1     3   am
     7     3    26    1
     8    26    27    1
     9    27    28   ar
    10    28    29   ar
    11    29    30   ar
    12    30    31   ar
    13    31    33    1
    14    33    34    2
    15    33    35    1
    16    31    32   ar
    17     3    16    1
    18    16    17    1
    19    16    18    1
    20    18    19   ar
    21    19    20   ar
    22    20    21   ar
    23    21    22    1
    24    21    23   ar
    25    23    24   ar
    26    24    25    1
    27     5     6   ar
    28     6     7   ar
    29     7     8   ar
    30     8     9   ar
    31     9    10   ar
    32    10    11   ar
    33    11    12   ar
    34    12    13   ar
    35    13     4   ar
    36    32    27   ar
    37    24    18   ar
    38    13     8   ar
    39    35    36    1
@<TRIPOS>MOLECULE
*****
 36 39 0 0 0
SMALL
GASTEIGER

@<TRIPOS>ATOM
      1 C         -28.7314   49.0995   -9.5663 C.2     1  UNL1        0.2702
      2 O         -28.9419   48.5213  -10.6660 O.2     1  UNL1       -0.2681
      3 N         -29.1835   50.4516   -9.3802 N.am    1  UNL1       -0.2685
      4 C         -28.6350   47.4418   -7.6633 C.ar    1  UNL1        0.1606
      5 C         -28.0082   48.4029   -8.4844 C.ar    1  UNL1        0.1684
      6 N         -26.7108   48.7416   -8.2519 N.ar    1  UNL1       -0.2362
      7 C         -25.9817   48.1941   -7.2474 C.ar    1  UNL1        0.0992
      8 C         -26.5595   47.2458   -6.3986 C.ar    1  UNL1        0.0221
      9 C         -25.8252   46.6867   -5.3421 C.ar    1  UNL1        0.0016
     10 C         -26.4179   45.7423   -4.5007 C.ar    1  UNL1        0.0001
     11 C         -27.7418   45.3496   -4.7089 C.ar    1  UNL1        0.0001
     12 C         -28.4830   45.9000   -5.7585 C.ar    1  UNL1        0.0031
     13 C         -27.9022   46.8555   -6.6129 C.ar    1  UNL1        0.0372
     14 C         -30.3146   45.9501   -8.6686 C.3     1  UNL1        0.2525
     15 O         -29.9686   47.0795   -7.8770 O.3     1  UNL1       -0.4698
     16 C         -28.6205   51.4992  -10.2549 C.3     1  UNL1        0.1007
     17 C         -29.2098   51.4387  -11.6723 C.3     1  UNL1        0.0265
     18 C         -27.0969   51.4819  -10.2268 C.ar    1  UNL1        0.0234
     19 C         -26.3428   50.9417  -11.2903 C.ar    1  UNL1        0.0019
     20 C         -24.9473   50.9026  -11.2264 C.ar    1  UNL1        0.0295
     21 C         -24.2821   51.3948  -10.1033 C.ar    1  UNL1        0.1424
     22 F         -22.9282   51.3546  -10.0445 F       1  UNL1       -0.2041
     23 C         -25.0118   51.9289   -9.0405 C.ar    1  UNL1        0.0590
     24 C         -26.4087   51.9725   -9.0955 C.ar    1  UNL1        0.1399
     25 F         -27.0839   52.5016   -8.0435 F       1  UNL1       -0.2044
     26 C         -30.3841   50.6751   -8.5536 C.3     1  UNL1        0.1207
     27 C         -30.0737   50.5154   -7.0865 C.ar    1  UNL1       -0.0021
     28 C         -29.0106   51.2241   -6.5088 C.ar    1  UNL1       -0.0026
     29 C         -28.6638   51.0084   -5.1743 C.ar    1  UNL1       -0.0001
     30 C         -29.3690   50.0807   -4.4043 C.ar    1  UNL1        0.0064
     31 C         -30.4462   49.3675   -4.9591 C.ar    1  UNL1        0.0752
     32 C         -30.7952   49.5985   -6.3026 C.ar    1  UNL1        0.0038
     33 C         -31.1792   48.3503   -4.1671 C.2     1  UNL1        0.3380
     34 O         -31.4582   47.2366   -4.6852 O.2     1  UNL1       -0.2451
     35 O         -31.5828   48.5926   -2.8547 O.3     1  UNL1       -0.4771
     36 H         -31.4812   49.4961   -2.4112 H       1  UNL1        0.2954
@<TRIPOS>BOND
     1    14    15    1
     2    15     4    1
     3     4     5   ar
     4     5     1    1
     5     1     2    2
     6     1     3   am
     7     3    26    1
     8    26    27    1
     9    27    28   ar
    10    28    29   ar
    11    29    30   ar
    12    30    31   ar
    13    31    33    1
    14    33    34    2
    15    33    35    1
    16    31    32   ar
    17     3    16    1
    18    16    17    1
    19    16    18    1
    20    18    19   ar
    21    19    20   ar
    22    20    21   ar
    23    21    22    1
    24    21    23   ar
    25    23    24   ar
    26    24    25    1
    27     5     6   ar
    28     6     7   ar
    29     7     8   ar
    30     8     9   ar
    31     9    10   ar
    32    10    11   ar
    33    11    12   ar
    34    12    13   ar
    35    13     4   ar
    36    32    27   ar
    37    24    18   ar
    38    13     8   ar
    39    35    36    1
@<TRIPOS>MOLECULE
*****
 36 39 0 0 0
SMALL
GASTEIGER

@<TRIPOS>ATOM
      1 C         -26.9052   49.8291   -4.6411 C.2     1  UNL1        0.2702
      2 O         -25.9990   50.3629   -3.9468 O.2     1  UNL1       -0.2681
      3 N         -26.8333   49.9026   -6.0752 N.am    1  UNL1       -0.2685
      4 C         -27.8714   47.9965   -3.1964 C.ar    1  UNL1        0.1606
      5 C         -28.0427   49.1516   -3.9884 C.ar    1  UNL1        0.1684
      6 N         -29.2949   49.6388   -4.2037 N.ar    1  UNL1       -0.2362
      7 C         -30.4051   49.0529   -3.6895 C.ar    1  UNL1        0.0992
      8 C         -30.2906   47.8999   -2.9077 C.ar    1  UNL1        0.0221
      9 C         -31.4309   47.2701   -2.3869 C.ar    1  UNL1        0.0016
     10 C         -31.2999   46.1168   -1.6098 C.ar    1  UNL1        0.0001
     11 C         -30.0345   45.5877   -1.3467 C.ar    1  UNL1        0.0001
     12 C         -28.8914   46.2069   -1.8604 C.ar    1  UNL1        0.0031
     13 C         -29.0061   47.3672   -2.6483 C.ar    1  UNL1        0.0372
     14 C         -26.0837   46.3934   -3.7361 C.3     1  UNL1        0.2525
     15 O         -26.5961   47.4719   -2.9638 O.3     1  UNL1       -0.4698
     16 C         -26.8740   51.2369   -6.7055 C.3     1  UNL1        0.1007
     17 C         -28.2511   51.9003   -6.5524 C.3     1  UNL1        0.0265
     18 C         -26.3806   51.1820   -8.1464 C.ar    1  UNL1        0.0234
     19 C         -27.2706   51.2726   -9.2378 C.ar    1  UNL1        0.0019
     20 C         -26.7998   51.1825  -10.5505 C.ar    1  UNL1        0.0295
     21 C         -25.4393   50.9961  -10.7969 C.ar    1  UNL1        0.1424
     22 F         -24.9863   50.9083  -12.0718 F       1  UNL1       -0.2041
     23 C         -24.5454   50.9002   -9.7298 C.ar    1  UNL1        0.0590
     24 C         -25.0071   50.9895   -8.4126 C.ar    1  UNL1        0.1399
     25 F         -24.1073   50.8942   -7.4010 F       1  UNL1       -0.2044
     26 C         -26.4226   48.6935   -6.8130 C.3     1  UNL1        0.1207
     27 C         -27.5734   48.1169   -7.5987 C.ar    1  UNL1       -0.0021
     28 C         -28.8928   48.3185   -7.1687 C.ar    1  UNL1       -0.0026
     29 C         -29.9529   47.7093   -7.8415 C.ar    1  UNL1       -0.0001
     30 C         -29.7086   46.8891   -8.9454 C.ar    1  UNL1        0.0064
     31 C         -28.3948   46.6825   -9.4015 C.ar    1  UNL1        0.0752
     32 C         -27.3327   47.3085   -8.7231 C.ar    1  UNL1        0.0038
     33 C         -28.1152   45.7830  -10.5469 C.2     1  UNL1        0.3380
     34 O         -28.8404   45.8367  -11.5754 O.2     1  UNL1       -0.2451
     35 O         -27.0689   44.8619  -10.5187 O.3     1  UNL1       -0.4771
     36 H         -26.5113   44.6955   -9.6912 H       1  UNL1        0.2954
@<TRIPOS>BOND
     1    14    15    1
     2    15     4    1
     3     4     5   ar
     4     5     1    1
     5     1     2    2
     6     1     3   am
     7     3    26    1
     8    26    27    1
     9    27    28   ar
    10    28    29   ar
    11    29    30   ar
    12    30    31   ar
    13    31    33    1
    14    33    34    2
    15    33    35    1
    16    31    32   ar
    17     3    16    1
    18    16    17    1
    19    16    18    1
    20    18    19   ar
    21    19    20   ar
    22    20    21   ar
    23    21    22    1
    24    21    23   ar
    25    23    24   ar
    26    24    25    1
    27     5     6   ar
    28     6     7   ar
    29     7     8   ar
    30     8     9   ar
    31     9    10   ar
    32    10    11   ar
    33    11    12   ar
    34    12    13   ar
    35    13     4   ar
    36    32    27   ar
    37    24    18   ar
    38    13     8   ar
    39    35    36    1
@<TRIPOS>MOLECULE
*****
 36 39 0 0 0
SMALL
GASTEIGER

@<TRIPOS>ATOM
      1 C         -29.2285   46.2895   -7.6882 C.2     1  UNL1        0.2702
      2 O         -29.5657   45.2770   -8.3584 O.2     1  UNL1       -0.2681
      3 N         -29.8086   47.5681   -7.9981 N.am    1  UNL1       -0.2685
      4 C         -28.5129   45.4962   -5.3996 C.ar    1  UNL1        0.1606
      5 C         -28.2306   46.1694   -6.6071 C.ar    1  UNL1        0.1684
      6 N         -27.0216   46.7711   -6.7740 N.ar    1  UNL1       -0.2362
      7 C         -26.0614   46.7595   -5.8157 C.ar    1  UNL1        0.0992
      8 C         -26.2955   46.1163   -4.5971 C.ar    1  UNL1        0.0221
      9 C         -25.3208   46.1141   -3.5881 C.ar    1  UNL1        0.0016
     10 C         -25.5711   45.4693   -2.3746 C.ar    1  UNL1        0.0001
     11 C         -26.7907   44.8229   -2.1618 C.ar    1  UNL1        0.0001
     12 C         -27.7692   44.8186   -3.1600 C.ar    1  UNL1        0.0031
     13 C         -27.5345   45.4668   -4.3868 C.ar    1  UNL1        0.0372
     14 C         -30.7742   45.4873   -4.4284 C.3     1  UNL1        0.2525
     15 O         -29.7493   44.8741   -5.2001 O.3     1  UNL1       -0.4698
     16 C         -29.5608   48.1373   -9.3375 C.3     1  UNL1        0.1007
     17 C         -29.1318   47.0611  -10.3462 C.3     1  UNL1        0.0265
     18 C         -28.6043   49.3215   -9.2656 C.ar    1  UNL1        0.0234
     19 C         -27.2231   49.1449   -9.0365 C.ar    1  UNL1        0.0019
     20 C         -26.3705   50.2477   -8.9373 C.ar    1  UNL1        0.0295
     21 C         -26.8789   51.5411   -9.0593 C.ar    1  UNL1        0.1424
     22 F         -26.0488   52.6087   -8.9618 F       1  UNL1       -0.2041
     23 C         -28.2427   51.7348   -9.2820 C.ar    1  UNL1        0.0590
     24 C         -29.1038   50.6373   -9.3829 C.ar    1  UNL1        0.1399
     25 F         -30.4237   50.8652   -9.6023 F       1  UNL1       -0.2044
     26 C         -30.8508   48.0947   -7.0974 C.3     1  UNL1        0.1207
     27 C         -30.3970   49.3641   -6.4215 C.ar    1  UNL1       -0.0021
     28 C         -31.2513   50.4741   -6.3577 C.ar    1  UNL1       -0.0026
     29 C         -30.8009   51.6784   -5.8151 C.ar    1  UNL1       -0.0001
     30 C         -29.4937   51.7902   -5.3360 C.ar    1  UNL1        0.0064
     31 C         -28.6234   50.6867   -5.3787 C.ar    1  UNL1        0.0752
     32 C         -29.0889   49.4735   -5.9185 C.ar    1  UNL1        0.0038
     33 C         -27.2206   50.8003   -4.9112 C.2     1  UNL1        0.3380
     34 O         -26.5778   51.8640   -5.1155 O.2     1  UNL1       -0.2451
     35 O         -26.5789   49.7519   -4.2530 O.3     1  UNL1       -0.4771
     36 H         -26.9991   48.8381   -4.1442 H       1  UNL1        0.2954
@<TRIPOS>BOND
     1    14    15    1
     2    15     4    1
     3     4     5   ar
     4     5     1    1
     5     1     2    2
     6     1     3   am
     7     3    26    1
     8    26    27    1
     9    27    28   ar
    10    28    29   ar
    11    29    30   ar
    12    30    31   ar
    13    31    33    1
    14    33    34    2
    15    33    35    1
    16    31    32   ar
    17     3    16    1
    18    16    17    1
    19    16    18    1
    20    18    19   ar
    21    19    20   ar
    22    20    21   ar
    23    21    22    1
    24    21    23   ar
    25    23    24   ar
    26    24    25    1
    27     5     6   ar
    28     6     7   ar
    29     7     8   ar
    30     8     9   ar
    31     9    10   ar
    32    10    11   ar
    33    11    12   ar
    34    12    13   ar
    35    13     4   ar
    36    32    27   ar
    37    24    18   ar
    38    13     8   ar
    39    35    36    1
@<TRIPOS>MOLECULE
*****
 36 39 0 0 0
SMALL
GASTEIGER

@<TRIPOS>ATOM
      1 C         -30.1315   50.5416   -7.0507 C.2     1  UNL1        0.2702
      2 O         -30.6461   51.5735   -6.5422 O.2     1  UNL1       -0.2681
      3 N         -30.6780   49.2498   -6.7347 N.am    1  UNL1       -0.2685
      4 C         -27.6417   50.6693   -7.4549 C.ar    1  UNL1        0.1606
      5 C         -28.9641   50.6550   -7.9468 C.ar    1  UNL1        0.1684
      6 N         -29.1857   50.7967   -9.2820 N.ar    1  UNL1       -0.2362
      7 C         -28.1788   50.9601  -10.1762 C.ar    1  UNL1        0.0992
      8 C         -26.8517   50.9929   -9.7389 C.ar    1  UNL1        0.0221
      9 C         -25.8009   51.1827  -10.6488 C.ar    1  UNL1        0.0016
     10 C         -24.4801   51.2160  -10.1955 C.ar    1  UNL1        0.0001
     11 C         -24.2003   51.0583   -8.8363 C.ar    1  UNL1        0.0001
     12 C         -25.2393   50.8684   -7.9207 C.ar    1  UNL1        0.0031
     13 C         -26.5757   50.8364   -8.3603 C.ar    1  UNL1        0.0372
     14 C         -27.0593   51.6515   -5.2748 C.3     1  UNL1        0.2525
     15 O         -27.3863   50.5311   -6.0870 O.3     1  UNL1       -0.4698
     16 C         -30.6415   48.8051   -5.3275 C.3     1  UNL1        0.1007
     17 C         -30.3163   49.9616   -4.3701 C.3     1  UNL1        0.0265
     18 C         -29.7307   47.5957   -5.1542 C.ar    1  UNL1        0.0234
     19 C         -28.3664   47.6387   -5.5126 C.ar    1  UNL1        0.0019
     20 C         -27.5587   46.5060   -5.3797 C.ar    1  UNL1        0.0295
     21 C         -28.0962   45.3138   -4.8939 C.ar    1  UNL1        0.1424
     22 F         -27.3097   44.2168   -4.7671 F       1  UNL1       -0.2041
     23 C         -29.4441   45.2518   -4.5384 C.ar    1  UNL1        0.0590
     24 C         -30.2602   46.3802   -4.6677 C.ar    1  UNL1        0.1399
     25 F         -31.5658   46.2821   -4.3095 F       1  UNL1       -0.2044
     26 C         -31.5058   48.5776   -7.7534 C.3     1  UNL1        0.1207
     27 C         -30.9093   47.2514   -8.1526 C.ar    1  UNL1       -0.0021
     28 C         -31.5781   46.0568   -7.8497 C.ar    1  UNL1       -0.0026
     29 C         -30.9851   44.8263   -8.1355 C.ar    1  UNL1       -0.0001
     30 C         -29.7179   44.7739   -8.7206 C.ar    1  UNL1        0.0064
     31 C         -29.0339   45.9590   -9.0442 C.ar    1  UNL1        0.0752
     32 C         -29.6435   47.1953   -8.7614 C.ar    1  UNL1        0.0038
     33 C         -27.6715   45.9207   -9.6287 C.2     1  UNL1        0.3380
     34 O         -26.6764   46.2147   -8.9146 O.2     1  UNL1       -0.2451
     35 O         -27.4540   45.5748  -10.9618 O.3     1  UNL1       -0.4771
     36 H         -28.2105   45.4248  -11.6164 H       1  UNL1        0.2954
@<TRIPOS>BOND
     1    14    15    1
     2    15     4    1
     3     4     5   ar
     4     5     1    1
     5     1     2    2
     6     1     3   am
     7     3    26    1
     8    26    27    1
     9    27    28   ar
    10    28    29   ar
    11    29    30   ar
    12    30    31   ar
    13    31    33    1
    14    33    34    2
    15    33    35    1
    16    31    32   ar
    17     3    16    1
    18    16    17    1
    19    16    18    1
    20    18    19   ar
    21    19    20   ar
    22    20    21   ar
    23    21    22    1
    24    21    23   ar
    25    23    24   ar
    26    24    25    1
    27     5     6   ar
    28     6     7   ar
    29     7     8   ar
    30     8     9   ar
    31     9    10   ar
    32    10    11   ar
    33    11    12   ar
    34    12    13   ar
    35    13     4   ar
    36    32    27   ar
    37    24    18   ar
    38    13     8   ar
    39    35    36    1
@<TRIPOS>MOLECULE
*****
 36 39 0 0 0
SMALL
GASTEIGER

@<TRIPOS>ATOM
      1 C         -30.2157   47.3258   -8.2300 C.2     1  UNL1        0.2702
      2 O         -30.9837   46.3570   -7.9857 O.2     1  UNL1       -0.2681
      3 N         -29.0064   47.4793   -7.4677 N.am    1  UNL1       -0.2685
      4 C         -30.7145   47.9381  -10.6290 C.ar    1  UNL1        0.1606
      5 C         -30.5639   48.3078   -9.2756 C.ar    1  UNL1        0.1684
      6 N         -30.6946   49.6142   -8.9175 N.ar    1  UNL1       -0.2362
      7 C         -30.9610   50.5947   -9.8162 C.ar    1  UNL1        0.0992
      8 C         -31.1078   50.2828  -11.1708 C.ar    1  UNL1        0.0221
      9 C         -31.3620   51.2885  -12.1152 C.ar    1  UNL1        0.0016
     10 C         -31.5032   50.9608  -13.4657 C.ar    1  UNL1        0.0001
     11 C         -31.3943   49.6318  -13.8805 C.ar    1  UNL1        0.0001
     12 C         -31.1413   48.6214  -12.9483 C.ar    1  UNL1        0.0031
     13 C         -30.9924   48.9350  -11.5846 C.ar    1  UNL1        0.0372
     14 C         -29.3378   46.0862  -11.4845 C.3     1  UNL1        0.2525
     15 O         -30.5799   46.6037  -11.0247 O.3     1  UNL1       -0.4698
     16 C         -29.1250   47.6949   -6.0121 C.3     1  UNL1        0.1007
     17 C         -30.5839   47.6110   -5.5382 C.3     1  UNL1        0.0265
     18 C         -28.4177   48.9751   -5.5842 C.ar    1  UNL1        0.0234
     19 C         -28.8280   50.2406   -6.0549 C.ar    1  UNL1        0.0019
     20 C         -28.1411   51.3980   -5.6785 C.ar    1  UNL1        0.0295
     21 C         -27.0342   51.3136   -4.8336 C.ar    1  UNL1        0.1424
     22 F         -26.3698   52.4386   -4.4711 F       1  UNL1       -0.2041
     23 C         -26.6118   50.0703   -4.3617 C.ar    1  UNL1        0.0590
     24 C         -27.2930   48.9065   -4.7328 C.ar    1  UNL1        0.1399
     25 F         -26.8541   47.7155   -4.2518 F       1  UNL1       -0.2044
     26 C         -27.7295   47.1160   -8.1100 C.3     1  UNL1        0.1207
     27 C         -26.8451   48.3244   -8.2874 C.ar    1  UNL1       -0.0021
     28 C         -25.6148   48.4029   -7.6191 C.ar    1  UNL1       -0.0026
     29 C         -24.8379   49.5587   -7.7087 C.ar    1  UNL1       -0.0001
     30 C         -25.2813   50.6493   -8.4603 C.ar    1  UNL1        0.0064
     31 C         -26.5058   50.5884   -9.1486 C.ar    1  UNL1        0.0752
     32 C         -27.2782   49.4155   -9.0606 C.ar    1  UNL1        0.0038
     33 C         -27.0096   51.7518   -9.9179 C.2     1  UNL1        0.3380
     34 O         -27.6603   51.5646  -10.9800 O.2     1  UNL1       -0.2451
     35 O         -26.7758   53.0626   -9.5041 O.3     1  UNL1       -0.4771
     36 H         -26.1787   53.2881   -8.7192 H       1  UNL1        0.2954
@<TRIPOS>BOND
     1    14    15    1
     2    15     4    1
     3     4     5   ar
     4     5     1    1
     5     1     2    2
     6     1     3   am
     7     3    26    1
     8    26    27    1
     9    27    28   ar
    10    28    29   ar
    11    29    30   ar
    12    30    31   ar
    13    31    33    1
    14    33    34    2
    15    33    35    1
    16    31    32   ar
    17     3    16    1
    18    16    17    1
    19    16    18    1
    20    18    19   ar
    21    19    20   ar
    22    20    21   ar
    23    21    22    1
    24    21    23   ar
    25    23    24   ar
    26    24    25    1
    27     5     6   ar
    28     6     7   ar
    29     7     8   ar
    30     8     9   ar
    31     9    10   ar
    32    10    11   ar
    33    11    12   ar
    34    12    13   ar
    35    13     4   ar
    36    32    27   ar
    37    24    18   ar
    38    13     8   ar
    39    35    36    1
