@<TRIPOS>MOLECULE
*****
 47 52 0 0 0
SMALL
GASTEIGER

@<TRIPOS>ATOM
      1 C          60.9048   87.6977    9.2034 C.ar    1  UNL1        0.0661
      2 C          60.2184   86.4749    9.1673 C.ar    1  UNL1        0.1146
      3 N          60.2085   85.6575   10.2500 N.ar    1  UNL1       -0.2279
      4 C          60.8634   85.9702   11.3990 C.ar    1  UNL1        0.1315
      5 C          61.5479   87.1908   11.4888 C.ar    1  UNL1        0.0313
      6 C          61.5684   88.0772   10.3951 C.ar    1  UNL1       -0.0047
      7 N          60.8066   85.0658   12.5178 N.pl3   1  UNL1       -0.2933
      8 C          59.8668   83.9362   12.5443 C.3     1  UNL1        0.0923
      9 C          60.5982   82.6327   12.9013 C.3     1  UNL1        0.0252
     10 C          61.7473   82.8340   13.9291 C.3     1  UNL1        0.0472
     11 C          61.6192   84.1689   14.6905 C.3     1  UNL1        0.0252
     12 C          61.6309   85.3453   13.7028 C.3     1  UNL1        0.0923
     13 C          61.8520   81.6479   14.9004 C.3     1  UNL1        0.2054
     14 O          62.1054   80.4391   14.1857 O.3     1  UNL1       -0.4755
     15 C          61.2134   79.8509   13.2775 C.ar    1  UNL1        0.1388
     16 C          59.9639   79.3383   13.6721 C.ar    1  UNL1        0.0369
     17 C          59.1120   78.7621   12.7277 C.ar    1  UNL1        0.0033
     18 C          59.4939   78.6908   11.3862 C.ar    1  UNL1        0.0066
     19 C          60.7387   79.1978   10.9736 C.ar    1  UNL1        0.0785
     20 C          61.5909   79.7766   11.9309 C.ar    1  UNL1        0.0433
     21 C          61.1497   79.1255    9.5540 C.2     1  UNL1        0.3381
     22 O          60.5561   79.8153    8.6812 O.2     1  UNL1       -0.2451
     23 O          62.1977   78.2936    9.1680 O.3     1  UNL1       -0.4771
     24 H          62.4870   78.2367    8.1988 H       1  UNL1        0.2954
     25 C          59.8780   88.6399    7.0999 C.2     1  UNL1        0.2839
     26 O          58.7508   88.1544    7.3879 O.2     1  UNL1       -0.2665
     27 N          60.9739   88.5073    8.0180 N.am    1  UNL1       -0.2769
     28 H          61.8591   89.0268    7.8236 H       1  UNL1        0.1553
     29 C          57.5913   89.9407    5.2702 C.3     1  UNL1        0.0345
     30 C          59.0708   89.9371    5.0288 C.ar    1  UNL1        0.0202
     31 C          60.0664   89.3681    5.8308 C.ar    1  UNL1        0.1946
     32 O          61.2542   89.5709    5.2888 O.2     1  UNL1       -0.4492
     33 C          61.0804   90.2432    4.1775 C.ar    1  UNL1        0.1452
     34 C          62.0600   90.6732    3.2894 C.ar    1  UNL1        0.0375
     35 C          61.6507   91.3875    2.1501 C.ar    1  UNL1        0.0031
     36 C          60.2757   91.6602    1.9162 C.ar    1  UNL1        0.0002
     37 C          59.3100   91.2038    2.8453 C.ar    1  UNL1        0.0028
     38 C          59.7519   90.4975    3.9651 C.ar    1  UNL1        0.0337
     39 C          59.8552   92.4160    0.7092 C.ar    1  UNL1        0.0000
     40 C          60.8139   93.0113   -0.1328 C.ar    1  UNL1        0.0000
     41 C          60.4150   93.7223   -1.2688 C.ar    1  UNL1        0.0000
     42 C          59.0586   93.8465   -1.5776 C.ar    1  UNL1        0.0000
     43 C          58.0980   93.2601   -0.7509 C.ar    1  UNL1        0.0000
     44 C          58.4910   92.5487    0.3870 C.ar    1  UNL1        0.0000
     45 C          62.2897   89.4147   10.5197 C.3     1  UNL1        0.0237
     46 C          63.5125   89.4570    9.5974 C.3     1  UNL1        0.0047
     47 C          62.6843   89.7152   11.9728 C.3     1  UNL1        0.0047
@<TRIPOS>BOND
     1    29    30    1
     2    30    31   ar
     3    31    25    1
     4    25    26    2
     5    25    27   am
     6    27     1    1
     7     1     2   ar
     8     2     3   ar
     9     3     4   ar
    10     4     7    1
    11     7     8    1
    12     8     9    1
    13     9    10    1
    14    10    13    1
    15    13    14    1
    16    14    15    1
    17    15    16   ar
    18    16    17   ar
    19    17    18   ar
    20    18    19   ar
    21    19    21    1
    22    21    22    2
    23    21    23    1
    24    19    20   ar
    25    10    11    1
    26    11    12    1
    27     4     5   ar
    28     5     6   ar
    29     6    45    1
    30    45    46    1
    31    45    47    1
    32    31    32   ar
    33    32    33   ar
    34    33    34   ar
    35    34    35   ar
    36    35    36   ar
    37    36    39    1
    38    39    40   ar
    39    40    41   ar
    40    41    42   ar
    41    42    43   ar
    42    43    44   ar
    43    36    37   ar
    44    37    38   ar
    45    38    30   ar
    46     6     1   ar
    47    38    33   ar
    48    12     7    1
    49    44    39   ar
    50    20    15   ar
    51    27    28    1
    52    23    24    1
@<TRIPOS>MOLECULE
*****
 47 52 0 0 0
SMALL
GASTEIGER

@<TRIPOS>ATOM
      1 C          61.4673   87.7828    9.1190 C.ar    1  UNL1        0.0661
      2 C          61.5403   88.4273   10.3628 C.ar    1  UNL1        0.1146
      3 N          61.5324   87.7087   11.5133 N.ar    1  UNL1       -0.2279
      4 C          61.4407   86.3528   11.5191 C.ar    1  UNL1        0.1315
      5 C          61.3845   85.6631   10.2995 C.ar    1  UNL1        0.0313
      6 C          61.4085   86.3688    9.0813 C.ar    1  UNL1       -0.0047
      7 N          61.4479   85.6456   12.7733 N.pl3   1  UNL1       -0.2933
      8 C          60.2672   84.9087   13.2453 C.3     1  UNL1        0.0923
      9 C          60.6526   83.4810   13.6636 C.3     1  UNL1        0.0252
     10 C          62.0569   83.3920   14.3250 C.3     1  UNL1        0.0472
     11 C          62.5551   84.7653   14.8188 C.3     1  UNL1        0.0252
     12 C          62.6252   85.7560   13.6471 C.3     1  UNL1        0.0923
     13 C          62.0851   82.3512   15.4552 C.3     1  UNL1        0.2054
     14 O          62.4690   81.0741   14.9474 O.3     1  UNL1       -0.4755
     15 C          62.0690   80.5596   13.7057 C.ar    1  UNL1        0.1388
     16 C          62.7543   80.8516   12.5121 C.ar    1  UNL1        0.0369
     17 C          62.3146   80.3134   11.3010 C.ar    1  UNL1        0.0033
     18 C          61.1927   79.4824   11.2662 C.ar    1  UNL1        0.0066
     19 C          60.4954   79.1796   12.4489 C.ar    1  UNL1        0.0785
     20 C          60.9447   79.7256   13.6645 C.ar    1  UNL1        0.0433
     21 C          59.3060   78.2999   12.4194 C.2     1  UNL1        0.3381
     22 O          58.6473   78.0809   13.4720 O.2     1  UNL1       -0.2451
     23 O          58.9024   77.7048   11.2269 O.3     1  UNL1       -0.4771
     24 H          58.0896   77.1009   11.1957 H       1  UNL1        0.2954
     25 C          60.1927   88.6764    7.1331 C.2     1  UNL1        0.2839
     26 O          59.1106   88.1930    7.5628 O.2     1  UNL1       -0.2665
     27 N          61.3905   88.5673    7.9174 N.am    1  UNL1       -0.2769
     28 H          62.2432   89.0858    7.6086 H       1  UNL1        0.1553
     29 C          57.6729   89.6452    5.4066 C.3     1  UNL1        0.0345
     30 C          59.1272   89.8025    5.0788 C.ar    1  UNL1        0.0202
     31 C          60.2249   89.3782    5.8359 C.ar    1  UNL1        0.1946
     32 O          61.3494   89.6970    5.2197 O.2     1  UNL1       -0.4492
     33 C          61.0376   90.3073    4.1027 C.ar    1  UNL1        0.1452
     34 C          61.9101   90.8162    3.1472 C.ar    1  UNL1        0.0375
     35 C          61.3583   91.4403    2.0151 C.ar    1  UNL1        0.0031
     36 C          59.9502   91.5461    1.8552 C.ar    1  UNL1        0.0002
     37 C          59.0968   91.0139    2.8515 C.ar    1  UNL1        0.0028
     38 C          59.6789   90.4008    3.9621 C.ar    1  UNL1        0.0337
     39 C          59.3787   92.2078    0.6549 C.ar    1  UNL1        0.0000
     40 C          58.1148   91.8300    0.1627 C.ar    1  UNL1        0.0000
     41 C          57.5791   92.4549   -0.9676 C.ar    1  UNL1        0.0000
     42 C          58.2958   93.4620   -1.6176 C.ar    1  UNL1        0.0000
     43 C          59.5502   93.8463   -1.1389 C.ar    1  UNL1        0.0000
     44 C          60.0913   93.2242   -0.0096 C.ar    1  UNL1        0.0000
     45 C          61.3793   85.6027    7.7635 C.3     1  UNL1        0.0237
     46 C          60.0239   84.9155    7.5679 C.3     1  UNL1        0.0047
     47 C          62.5297   84.5901    7.6683 C.3     1  UNL1        0.0047
@<TRIPOS>BOND
     1    29    30    1
     2    30    31   ar
     3    31    25    1
     4    25    26    2
     5    25    27   am
     6    27     1    1
     7     1     2   ar
     8     2     3   ar
     9     3     4   ar
    10     4     7    1
    11     7     8    1
    12     8     9    1
    13     9    10    1
    14    10    13    1
    15    13    14    1
    16    14    15    1
    17    15    16   ar
    18    16    17   ar
    19    17    18   ar
    20    18    19   ar
    21    19    21    1
    22    21    22    2
    23    21    23    1
    24    19    20   ar
    25    10    11    1
    26    11    12    1
    27     4     5   ar
    28     5     6   ar
    29     6    45    1
    30    45    46    1
    31    45    47    1
    32    31    32   ar
    33    32    33   ar
    34    33    34   ar
    35    34    35   ar
    36    35    36   ar
    37    36    39    1
    38    39    40   ar
    39    40    41   ar
    40    41    42   ar
    41    42    43   ar
    42    43    44   ar
    43    36    37   ar
    44    37    38   ar
    45    38    30   ar
    46     6     1   ar
    47    38    33   ar
    48    12     7    1
    49    44    39   ar
    50    20    15   ar
    51    27    28    1
    52    23    24    1
@<TRIPOS>MOLECULE
*****
 47 52 0 0 0
SMALL
GASTEIGER

@<TRIPOS>ATOM
      1 C          59.6578   87.2942    7.4137 C.ar    1  UNL1        0.0661
      2 C          58.6326   86.4097    7.0473 C.ar    1  UNL1        0.1146
      3 N          58.2403   85.4218    7.8902 N.ar    1  UNL1       -0.2279
      4 C          58.8202   85.2339    9.1048 C.ar    1  UNL1        0.1315
      5 C          59.8365   86.1050    9.5226 C.ar    1  UNL1        0.0313
      6 C          60.2618   87.1551    8.6866 C.ar    1  UNL1       -0.0047
      7 N          58.3521   84.1737    9.9592 N.pl3   1  UNL1       -0.2933
      8 C          57.5086   83.0872    9.4417 C.3     1  UNL1        0.0923
      9 C          58.0754   81.7195    9.8541 C.3     1  UNL1        0.0252
     10 C          58.7214   81.7228   11.2683 C.3     1  UNL1        0.0472
     11 C          58.2679   82.9313   12.1120 C.3     1  UNL1        0.0252
     12 C          58.6356   84.2419   11.4003 C.3     1  UNL1        0.0923
     13 C          58.4674   80.4008   12.0094 C.3     1  UNL1        0.2054
     14 O          59.6798   79.6590   12.1356 O.3     1  UNL1       -0.4755
     15 C          60.8891   80.1875   12.6099 C.ar    1  UNL1        0.1388
     16 C          61.1913   80.2660   13.9818 C.ar    1  UNL1        0.0369
     17 C          62.4105   80.8014   14.4020 C.ar    1  UNL1        0.0033
     18 C          63.3375   81.2620   13.4644 C.ar    1  UNL1        0.0066
     19 C          63.0527   81.1914   12.0894 C.ar    1  UNL1        0.0785
     20 C          61.8225   80.6509   11.6743 C.ar    1  UNL1        0.0433
     21 C          64.0300   81.6776   11.0905 C.2     1  UNL1        0.3381
     22 O          63.9155   81.3573    9.8763 O.2     1  UNL1       -0.2451
     23 O          65.0872   82.4948   11.4827 O.3     1  UNL1       -0.4771
     24 H          65.7619   82.8331   10.8069 H       1  UNL1        0.2954
     25 C          59.2292   89.1886    5.8030 C.2     1  UNL1        0.2839
     26 O          58.0153   89.2483    6.1377 O.2     1  UNL1       -0.2665
     27 N          60.1156   88.2783    6.4717 N.am    1  UNL1       -0.2769
     28 H          61.1396   88.3359    6.2735 H       1  UNL1        0.1553
     29 C          61.9170   88.7859    4.1051 C.3     1  UNL1        0.0345
     30 C          60.9203   89.9006    3.9983 C.ar    1  UNL1        0.0202
     31 C          59.7473   90.0727    4.7417 C.ar    1  UNL1        0.1946
     32 O          59.1285   91.1761    4.3606 O.2     1  UNL1       -0.4492
     33 C          59.8389   91.7278    3.4076 C.ar    1  UNL1        0.1452
     34 C          59.5578   92.9015    2.7171 C.ar    1  UNL1        0.0375
     35 C          60.4611   93.3149    1.7227 C.ar    1  UNL1        0.0031
     36 C          61.6259   92.5536    1.4345 C.ar    1  UNL1        0.0002
     37 C          61.8753   91.3647    2.1615 C.ar    1  UNL1        0.0028
     38 C          60.9575   90.9844    3.1418 C.ar    1  UNL1        0.0337
     39 C          62.5730   93.0002    0.3815 C.ar    1  UNL1        0.0000
     40 C          62.1875   93.0052   -0.9726 C.ar    1  UNL1        0.0000
     41 C          63.0813   93.4264   -1.9620 C.ar    1  UNL1        0.0000
     42 C          64.3663   93.8471   -1.6127 C.ar    1  UNL1        0.0000
     43 C          64.7607   93.8473   -0.2730 C.ar    1  UNL1        0.0000
     44 C          63.8714   93.4264    0.7206 C.ar    1  UNL1        0.0000
     45 C          61.3453   88.1133    9.1686 C.3     1  UNL1        0.0237
     46 C          62.6008   87.3420    9.5885 C.3     1  UNL1        0.0047
     47 C          60.8439   89.0127   10.3077 C.3     1  UNL1        0.0047
@<TRIPOS>BOND
     1    29    30    1
     2    30    31   ar
     3    31    25    1
     4    25    26    2
     5    25    27   am
     6    27     1    1
     7     1     2   ar
     8     2     3   ar
     9     3     4   ar
    10     4     7    1
    11     7     8    1
    12     8     9    1
    13     9    10    1
    14    10    13    1
    15    13    14    1
    16    14    15    1
    17    15    16   ar
    18    16    17   ar
    19    17    18   ar
    20    18    19   ar
    21    19    21    1
    22    21    22    2
    23    21    23    1
    24    19    20   ar
    25    10    11    1
    26    11    12    1
    27     4     5   ar
    28     5     6   ar
    29     6    45    1
    30    45    46    1
    31    45    47    1
    32    31    32   ar
    33    32    33   ar
    34    33    34   ar
    35    34    35   ar
    36    35    36   ar
    37    36    39    1
    38    39    40   ar
    39    40    41   ar
    40    41    42   ar
    41    42    43   ar
    42    43    44   ar
    43    36    37   ar
    44    37    38   ar
    45    38    30   ar
    46     6     1   ar
    47    38    33   ar
    48    12     7    1
    49    44    39   ar
    50    20    15   ar
    51    27    28    1
    52    23    24    1
