@<TRIPOS>MOLECULE
*****
 40 43 0 0 0
SMALL
GASTEIGER

@<TRIPOS>ATOM
      1 C         -10.6343  -12.7870   33.1274 C.ar    1  UNL1        0.0053
      2 C          -9.9083  -12.4435   34.2740 C.ar    1  UNL1        0.0033
      3 C          -8.7860  -11.6222   34.1690 C.ar    1  UNL1        0.0382
      4 C          -8.3966  -11.1221   32.9238 C.ar    1  UNL1        0.1529
      5 C          -9.1513  -11.4007   31.7737 C.ar    1  UNL1        0.0882
      6 C         -10.2521  -12.2751   31.8793 C.ar    1  UNL1        0.0181
      7 N          -8.7896  -10.7536   30.5314 N.am    1  UNL1       -0.2512
      8 C          -7.4688  -10.1814   30.4145 C.2     1  UNL1        0.2698
      9 O          -7.0639   -9.7544   29.2971 O.2     1  UNL1       -0.2704
     10 C          -6.5357  -10.1203   31.6086 C.3     1  UNL1        0.2197
     11 C          -5.5057  -11.2590   31.4880 C.3     1  UNL1        0.0579
     12 O          -7.2542  -10.3269   32.8308 O.3     1  UNL1       -0.4686
     13 C         -12.9413  -13.4747   32.3859 C.ar    1  UNL1        0.0645
     14 N         -14.0111  -14.3044   32.5102 N.ar    1  UNL1       -0.2183
     15 C         -14.0458  -15.2842   33.4480 C.ar    1  UNL1        0.2145
     16 N         -15.1872  -16.1318   33.5520 N.pl3   1  UNL1       -0.3274
     17 N         -12.9933  -15.4565   34.2863 N.ar    1  UNL1       -0.1995
     18 C         -11.8889  -14.6693   34.2100 C.ar    1  UNL1        0.1293
     19 N         -10.8156  -14.8942   35.1312 N.pl3   1  UNL1       -0.3425
     20 C         -11.8281  -13.6484   33.2385 C.ar    1  UNL1        0.0449
     21 H         -16.0004  -16.0046   32.9096 H       1  UNL1        0.1452
     22 H         -15.2203  -16.8879   34.2714 H       1  UNL1        0.1452
     23 H          -9.9538  -14.3055   35.1375 H       1  UNL1        0.1437
     24 H         -10.8887  -15.6599   35.8374 H       1  UNL1        0.1437
     25 C         -13.3997  -11.0803   31.8436 C.3     1  UNL1        0.0067
     26 C         -12.9702  -12.4361   31.2935 C.3     1  UNL1        0.0460
     27 C          -5.9022   -8.7300   31.6712 C.ar    1  UNL1        0.0228
     28 C          -4.9332   -8.4700   32.6626 C.ar    1  UNL1       -0.0004
     29 C          -4.3608   -7.2021   32.7892 C.ar    1  UNL1        0.0007
     30 C          -4.7564   -6.1672   31.9418 C.ar    1  UNL1        0.0114
     31 C          -5.7338   -6.3953   30.9707 C.ar    1  UNL1        0.0575
     32 CL         -6.2449   -5.0859   29.9207 Cl      1  UNL1       -0.0823
     33 C          -6.3120   -7.6633   30.8397 C.ar    1  UNL1        0.0109
     34 C          -9.8027  -10.3793   29.5253 C.3     1  UNL1        0.1196
     35 C         -10.6422   -9.1917   30.0159 C.3     1  UNL1        0.1113
     36 N          -9.8929   -7.9372   29.9395 N.am    1  UNL1       -0.3026
     37 C         -10.5523   -6.6673   29.8849 C.2     1  UNL1        0.2230
     38 C          -9.7447   -5.4156   29.7696 C.3     1  UNL1        0.0946
     39 O         -11.8110   -6.5993   29.9137 O.2     1  UNL1       -0.2751
     40 H          -8.8489   -7.9485   29.9467 H       1  UNL1        0.1495
@<TRIPOS>BOND
     1    25    26    1
     2    26    13    1
     3    13    14   ar
     4    14    15   ar
     5    15    16    1
     6    15    17   ar
     7    17    18   ar
     8    18    19    1
     9    18    20   ar
    10    20     1    1
    11     1     2   ar
    12     2     3   ar
    13     3     4   ar
    14     4     5   ar
    15     5     6   ar
    16     5     7    1
    17     7    34    1
    18    34    35    1
    19    35    36    1
    20    36    37   am
    21    37    38    1
    22    37    39    2
    23     7     8   am
    24     8     9    2
    25     8    10    1
    26    10    11    1
    27    10    27    1
    28    27    28   ar
    29    28    29   ar
    30    29    30   ar
    31    30    31   ar
    32    31    32    1
    33    31    33   ar
    34    10    12    1
    35    20    13   ar
    36     6     1   ar
    37    33    27   ar
    38    12     4    1
    39    16    21    1
    40    16    22    1
    41    19    23    1
    42    19    24    1
    43    36    40    1
@<TRIPOS>MOLECULE
*****
 40 43 0 0 0
SMALL
GASTEIGER

@<TRIPOS>ATOM
      1 C          -7.7636   -9.8098   32.5261 C.ar    1  UNL1        0.0053
      2 C          -7.7041  -10.5703   33.6999 C.ar    1  UNL1        0.0033
      3 C          -8.7165  -11.4841   33.9911 C.ar    1  UNL1        0.0382
      4 C          -9.7803  -11.6595   33.1024 C.ar    1  UNL1        0.1529
      5 C          -9.8217  -10.9551   31.8891 C.ar    1  UNL1        0.0882
      6 C          -8.8238   -9.9943   31.6274 C.ar    1  UNL1        0.0181
      7 N         -10.8685  -11.2663   30.9402 N.am    1  UNL1       -0.2512
      8 C         -12.0372  -11.9703   31.4135 C.2     1  UNL1        0.2698
      9 O         -13.0358  -12.1152   30.6542 O.2     1  UNL1       -0.2704
     10 C         -12.1047  -12.5078   32.8302 C.3     1  UNL1        0.2197
     11 C         -12.9568  -11.5479   33.6814 C.3     1  UNL1        0.0579
     12 O         -10.8009  -12.5550   33.4224 O.3     1  UNL1       -0.4686
     13 C          -5.5716   -9.2253   31.4312 C.ar    1  UNL1        0.0645
     14 N          -4.6143   -8.3019   31.1496 N.ar    1  UNL1       -0.2183
     15 C          -4.6930   -7.0308   31.6172 C.ar    1  UNL1        0.2145
     16 N          -3.6672   -6.0913   31.3053 N.pl3   1  UNL1       -0.3274
     17 N          -5.7487   -6.6549   32.3817 N.ar    1  UNL1       -0.1995
     18 C          -6.7452   -7.5242   32.6926 C.ar    1  UNL1        0.1293
     19 N          -7.8271   -7.0694   33.5134 N.pl3   1  UNL1       -0.3425
     20 C          -6.6876   -8.8491   32.2120 C.ar    1  UNL1        0.0449
     21 H          -2.8523   -6.3743   30.7173 H       1  UNL1        0.1452
     22 H          -3.7217   -5.1115   31.6619 H       1  UNL1        0.1452
     23 H          -8.6071   -7.6981   33.8062 H       1  UNL1        0.1437
     24 H          -7.8433   -6.0817   33.8516 H       1  UNL1        0.1437
     25 C          -4.5197  -11.4733   31.7089 C.3     1  UNL1        0.0067
     26 C          -5.4243  -10.6048   30.8414 C.3     1  UNL1        0.0460
     27 C         -12.6500  -13.9359   32.7924 C.ar    1  UNL1        0.0228
     28 C         -11.8221  -14.9654   32.2984 C.ar    1  UNL1       -0.0004
     29 C         -12.2921  -16.2772   32.2005 C.ar    1  UNL1        0.0007
     30 C         -13.6000  -16.5826   32.5769 C.ar    1  UNL1        0.0114
     31 C         -14.4456  -15.5737   33.0434 C.ar    1  UNL1        0.0575
     32 CL        -16.0969  -15.9571   33.4954 Cl      1  UNL1       -0.0823
     33 C         -13.9810  -14.2571   33.1425 C.ar    1  UNL1        0.0109
     34 C         -10.6478  -11.1829   29.4831 C.3     1  UNL1        0.1196
     35 C         -10.6242   -9.7196   29.0205 C.3     1  UNL1        0.1113
     36 N         -11.4042   -8.8620   29.9133 N.am    1  UNL1       -0.3026
     37 C         -11.1006   -7.4726   30.0796 C.2     1  UNL1        0.2230
     38 C         -11.9024   -6.6461   31.0315 C.3     1  UNL1        0.0946
     39 O         -10.1483   -6.9461   29.4427 O.2     1  UNL1       -0.2751
     40 H         -12.2213   -9.2518   30.4335 H       1  UNL1        0.1495
@<TRIPOS>BOND
     1    25    26    1
     2    26    13    1
     3    13    14   ar
     4    14    15   ar
     5    15    16    1
     6    15    17   ar
     7    17    18   ar
     8    18    19    1
     9    18    20   ar
    10    20     1    1
    11     1     2   ar
    12     2     3   ar
    13     3     4   ar
    14     4     5   ar
    15     5     6   ar
    16     5     7    1
    17     7    34    1
    18    34    35    1
    19    35    36    1
    20    36    37   am
    21    37    38    1
    22    37    39    2
    23     7     8   am
    24     8     9    2
    25     8    10    1
    26    10    11    1
    27    10    27    1
    28    27    28   ar
    29    28    29   ar
    30    29    30   ar
    31    30    31   ar
    32    31    32    1
    33    31    33   ar
    34    10    12    1
    35    20    13   ar
    36     6     1   ar
    37    33    27   ar
    38    12     4    1
    39    16    21    1
    40    16    22    1
    41    19    23    1
    42    19    24    1
    43    36    40    1
@<TRIPOS>MOLECULE
*****
 40 43 0 0 0
SMALL
GASTEIGER

@<TRIPOS>ATOM
      1 C          -5.8189  -18.4240   21.0639 C.ar    1  UNL1        0.0053
      2 C          -6.7153  -19.1076   20.2339 C.ar    1  UNL1        0.0033
      3 C          -8.0185  -19.3520   20.6662 C.ar    1  UNL1        0.0382
      4 C          -8.4396  -18.8962   21.9180 C.ar    1  UNL1        0.1529
      5 C          -7.5756  -18.1505   22.7350 C.ar    1  UNL1        0.0882
      6 C          -6.2443  -17.9547   22.3147 C.ar    1  UNL1        0.0181
      7 N          -8.0945  -17.5844   23.9611 N.am    1  UNL1       -0.2512
      8 C          -9.3231  -18.1202   24.4987 C.2     1  UNL1        0.2698
      9 O          -9.7177  -17.7638   25.6441 O.2     1  UNL1       -0.2704
     10 C         -10.1339  -19.1421   23.7249 C.3     1  UNL1        0.2197
     11 C          -9.8564  -20.5385   24.3123 C.3     1  UNL1        0.0579
     12 O          -9.7368  -19.1750   22.3487 O.3     1  UNL1       -0.4686
     13 C          -3.9638  -16.8361   20.4456 C.ar    1  UNL1        0.0645
     14 N          -2.6820  -16.6364   20.0388 N.ar    1  UNL1       -0.2183
     15 C          -1.8545  -17.6748   19.7603 C.ar    1  UNL1        0.2145
     16 N          -0.5179  -17.4265   19.3312 N.pl3   1  UNL1       -0.3274
     17 N          -2.3001  -18.9494   19.8907 N.ar    1  UNL1       -0.1995
     18 C          -3.5661  -19.2201   20.3022 C.ar    1  UNL1        0.1293
     19 N          -3.9801  -20.5870   20.4090 N.pl3   1  UNL1       -0.3425
     20 C          -4.4420  -18.1563   20.6035 C.ar    1  UNL1        0.0449
     21 H          -0.1687  -16.4479   19.2291 H       1  UNL1        0.1452
     22 H           0.1242  -18.2211   19.1153 H       1  UNL1        0.1452
     23 H          -4.9472  -20.8558   20.6949 H       1  UNL1        0.1437
     24 H          -3.3078  -21.3529   20.1817 H       1  UNL1        0.1437
     25 C          -4.5172  -15.1270   22.1806 C.3     1  UNL1        0.0067
     26 C          -4.8038  -15.6267   20.7686 C.3     1  UNL1        0.0460
     27 C         -11.6093  -18.7430   23.7736 C.ar    1  UNL1        0.0228
     28 C         -12.1896  -18.1501   22.6329 C.ar    1  UNL1       -0.0004
     29 C         -13.5205  -17.7260   22.6452 C.ar    1  UNL1        0.0007
     30 C         -14.2907  -17.8694   23.7993 C.ar    1  UNL1        0.0114
     31 C         -13.7284  -18.4291   24.9486 C.ar    1  UNL1        0.0575
     32 CL        -14.6933  -18.5882   26.4052 Cl      1  UNL1       -0.0823
     33 C         -12.3950  -18.8549   24.9429 C.ar    1  UNL1        0.0109
     34 C          -7.6039  -16.2978   24.4926 C.3     1  UNL1        0.1196
     35 C          -8.3730  -15.1244   23.8700 C.3     1  UNL1        0.1113
     36 N          -9.3997  -15.5904   22.9375 N.am    1  UNL1       -0.3026
     37 C          -9.3242  -15.3160   21.5342 C.2     1  UNL1        0.2230
     38 C         -10.4163  -15.7807   20.6268 C.3     1  UNL1        0.0946
     39 O          -8.3516  -14.6675   21.0615 O.2     1  UNL1       -0.2751
     40 H         -10.2041  -16.1588   23.2841 H       1  UNL1        0.1495
@<TRIPOS>BOND
     1    25    26    1
     2    26    13    1
     3    13    14   ar
     4    14    15   ar
     5    15    16    1
     6    15    17   ar
     7    17    18   ar
     8    18    19    1
     9    18    20   ar
    10    20     1    1
    11     1     2   ar
    12     2     3   ar
    13     3     4   ar
    14     4     5   ar
    15     5     6   ar
    16     5     7    1
    17     7    34    1
    18    34    35    1
    19    35    36    1
    20    36    37   am
    21    37    38    1
    22    37    39    2
    23     7     8   am
    24     8     9    2
    25     8    10    1
    26    10    11    1
    27    10    27    1
    28    27    28   ar
    29    28    29   ar
    30    29    30   ar
    31    30    31   ar
    32    31    32    1
    33    31    33   ar
    34    10    12    1
    35    20    13   ar
    36     6     1   ar
    37    33    27   ar
    38    12     4    1
    39    16    21    1
    40    16    22    1
    41    19    23    1
    42    19    24    1
    43    36    40    1
@<TRIPOS>MOLECULE
*****
 40 43 0 0 0
SMALL
GASTEIGER

@<TRIPOS>ATOM
      1 C          -4.8336  -18.7266   21.1939 C.ar    1  UNL1        0.0053
      2 C          -5.5924  -19.7005   20.5342 C.ar    1  UNL1        0.0033
      3 C          -6.9540  -19.8275   20.8076 C.ar    1  UNL1        0.0382
      4 C          -7.5689  -18.9693   21.7228 C.ar    1  UNL1        0.1529
      5 C          -6.8386  -17.9436   22.3430 C.ar    1  UNL1        0.0882
      6 C          -5.4522  -17.8564   22.1027 C.ar    1  UNL1        0.0181
      7 N          -7.5434  -16.9960   23.1787 N.am    1  UNL1       -0.2512
      8 C          -8.8548  -17.3534   23.6665 C.2     1  UNL1        0.2698
      9 O          -9.4278  -16.6252   24.5245 O.2     1  UNL1       -0.2704
     10 C          -9.5454  -18.6187   23.1948 C.3     1  UNL1        0.2197
     11 C          -9.3975  -19.6966   24.2850 C.3     1  UNL1        0.0579
     12 O          -8.9250  -19.1286   22.0083 O.3     1  UNL1       -0.4686
     13 C          -2.9212  -17.5966   20.0060 C.ar    1  UNL1        0.0645
     14 N          -1.5851  -17.4890   19.7790 N.ar    1  UNL1       -0.2183
     15 C          -0.6936  -18.3216   20.3730 C.ar    1  UNL1        0.2145
     16 N           0.6998  -18.1818   20.1067 N.pl3   1  UNL1       -0.3274
     17 N          -1.1296  -19.2869   21.2205 N.ar    1  UNL1       -0.1995
     18 C          -2.4498  -19.4432   21.4994 C.ar    1  UNL1        0.1293
     19 N          -2.8476  -20.4887   22.3938 N.pl3   1  UNL1       -0.3425
     20 C          -3.3941  -18.5849   20.8983 C.ar    1  UNL1        0.0449
     21 H           1.0418  -17.4407   19.4557 H       1  UNL1        0.1452
     22 H           1.3913  -18.8191   20.5606 H       1  UNL1        0.1452
     23 H          -3.8484  -20.6733   22.6255 H       1  UNL1        0.1437
     24 H          -2.1248  -21.1063   22.8255 H       1  UNL1        0.1437
     25 C          -4.4976  -15.6920   20.3591 C.3     1  UNL1        0.0067
     26 C          -3.8386  -16.6076   19.3331 C.3     1  UNL1        0.0460
     27 C         -10.9999  -18.2916   22.8550 C.ar    1  UNL1        0.0228
     28 C         -11.3014  -17.7967   21.5691 C.ar    1  UNL1       -0.0004
     29 C         -12.6079  -17.4395   21.2276 C.ar    1  UNL1        0.0007
     30 C         -13.6332  -17.5529   22.1665 C.ar    1  UNL1        0.0114
     31 C         -13.3525  -18.0151   23.4541 C.ar    1  UNL1        0.0575
     32 CL        -14.6403  -18.1358   24.6394 Cl      1  UNL1       -0.0823
     33 C         -12.0451  -18.3733   23.8028 C.ar    1  UNL1        0.0109
     34 C          -7.1228  -15.5849   23.2802 C.3     1  UNL1        0.1196
     35 C          -6.4496  -15.3148   24.6329 C.3     1  UNL1        0.1113
     36 N          -7.4208  -14.8837   25.6389 N.am    1  UNL1       -0.3026
     37 C          -7.4087  -15.4072   26.9716 C.2     1  UNL1        0.2230
     38 C          -8.4444  -14.9640   27.9529 C.3     1  UNL1        0.0946
     39 O          -6.5416  -16.2549   27.3171 O.2     1  UNL1       -0.2751
     40 H          -8.1344  -14.1591   25.4024 H       1  UNL1        0.1495
@<TRIPOS>BOND
     1    25    26    1
     2    26    13    1
     3    13    14   ar
     4    14    15   ar
     5    15    16    1
     6    15    17   ar
     7    17    18   ar
     8    18    19    1
     9    18    20   ar
    10    20     1    1
    11     1     2   ar
    12     2     3   ar
    13     3     4   ar
    14     4     5   ar
    15     5     6   ar
    16     5     7    1
    17     7    34    1
    18    34    35    1
    19    35    36    1
    20    36    37   am
    21    37    38    1
    22    37    39    2
    23     7     8   am
    24     8     9    2
    25     8    10    1
    26    10    11    1
    27    10    27    1
    28    27    28   ar
    29    28    29   ar
    30    29    30   ar
    31    30    31   ar
    32    31    32    1
    33    31    33   ar
    34    10    12    1
    35    20    13   ar
    36     6     1   ar
    37    33    27   ar
    38    12     4    1
    39    16    21    1
    40    16    22    1
    41    19    23    1
    42    19    24    1
    43    36    40    1
@<TRIPOS>MOLECULE
*****
 40 43 0 0 0
SMALL
GASTEIGER

@<TRIPOS>ATOM
      1 C          -8.5362   -9.5195   31.3735 C.ar    1  UNL1        0.0053
      2 C          -7.9052  -10.7344   31.0808 C.ar    1  UNL1        0.0033
      3 C          -8.5054  -11.9385   31.4480 C.ar    1  UNL1        0.0382
      4 C          -9.7473  -11.9368   32.0881 C.ar    1  UNL1        0.1529
      5 C         -10.4259  -10.7320   32.3289 C.ar    1  UNL1        0.0882
      6 C          -9.7885   -9.5172   32.0041 C.ar    1  UNL1        0.0181
      7 N         -11.7662  -10.7854   32.8707 N.am    1  UNL1       -0.2512
      8 C         -12.2004  -12.0057   33.5095 C.2     1  UNL1        0.2698
      9 O         -13.2985  -12.0343   34.1326 O.2     1  UNL1       -0.2704
     10 C         -11.3367  -13.2521   33.4810 C.3     1  UNL1        0.2197
     11 C         -10.6225  -13.3880   34.8387 C.3     1  UNL1        0.0579
     12 O         -10.3205  -13.1479   32.4764 O.3     1  UNL1       -0.4686
     13 C          -6.9684   -7.5973   31.8119 C.ar    1  UNL1        0.0645
     14 N          -6.3980   -6.4351   31.3970 N.ar    1  UNL1       -0.2183
     15 C          -6.7225   -5.8688   30.2076 C.ar    1  UNL1        0.2145
     16 N          -6.1072   -4.6465   29.8082 N.pl3   1  UNL1       -0.3274
     17 N          -7.6326   -6.4669   29.3989 N.ar    1  UNL1       -0.1995
     18 C          -8.2331   -7.6345   29.7476 C.ar    1  UNL1        0.1293
     19 N          -9.1943   -8.2101   28.8554 N.pl3   1  UNL1       -0.3425
     20 C          -7.9065   -8.2446   30.9767 C.ar    1  UNL1        0.0449
     21 H          -5.4057   -4.1812   30.4259 H       1  UNL1        0.1452
     22 H          -6.3523   -4.2053   28.8940 H       1  UNL1        0.1452
     23 H          -9.7064   -9.0911   29.0808 H       1  UNL1        0.1437
     24 H          -9.4129   -7.7362   27.9511 H       1  UNL1        0.1437
     25 C          -5.0706   -7.8166   33.4205 C.3     1  UNL1        0.0067
     26 C          -6.5239   -8.1762   33.1310 C.3     1  UNL1        0.0460
     27 C         -12.2143  -14.4546   33.1313 C.ar    1  UNL1        0.0228
     28 C         -11.6579  -15.5010   32.3666 C.ar    1  UNL1       -0.0004
     29 C         -12.4332  -16.5977   31.9826 C.ar    1  UNL1        0.0007
     30 C         -13.7802  -16.6624   32.3391 C.ar    1  UNL1        0.0114
     31 C         -14.3586  -15.6244   33.0729 C.ar    1  UNL1        0.0575
     32 CL        -16.0584  -15.6983   33.5010 Cl      1  UNL1       -0.0823
     33 C         -13.5872  -14.5222   33.4596 C.ar    1  UNL1        0.0109
     34 C         -12.7893   -9.7823   32.5162 C.3     1  UNL1        0.1196
     35 C         -12.3491   -8.9668   31.2927 C.3     1  UNL1        0.1113
     36 N         -12.0413   -7.5825   31.6531 N.am    1  UNL1       -0.3026
     37 C         -11.6188   -6.6250   30.6758 C.2     1  UNL1        0.2230
     38 C         -11.2795   -5.2327   31.0985 C.3     1  UNL1        0.0946
     39 O         -11.5121   -6.9543   29.4634 O.2     1  UNL1       -0.2751
     40 H         -12.1488   -7.2612   32.6407 H       1  UNL1        0.1495
@<TRIPOS>BOND
     1    25    26    1
     2    26    13    1
     3    13    14   ar
     4    14    15   ar
     5    15    16    1
     6    15    17   ar
     7    17    18   ar
     8    18    19    1
     9    18    20   ar
    10    20     1    1
    11     1     2   ar
    12     2     3   ar
    13     3     4   ar
    14     4     5   ar
    15     5     6   ar
    16     5     7    1
    17     7    34    1
    18    34    35    1
    19    35    36    1
    20    36    37   am
    21    37    38    1
    22    37    39    2
    23     7     8   am
    24     8     9    2
    25     8    10    1
    26    10    11    1
    27    10    27    1
    28    27    28   ar
    29    28    29   ar
    30    29    30   ar
    31    30    31   ar
    32    31    32    1
    33    31    33   ar
    34    10    12    1
    35    20    13   ar
    36     6     1   ar
    37    33    27   ar
    38    12     4    1
    39    16    21    1
    40    16    22    1
    41    19    23    1
    42    19    24    1
    43    36    40    1
@<TRIPOS>MOLECULE
*****
 40 43 0 0 0
SMALL
GASTEIGER

@<TRIPOS>ATOM
      1 C          -7.7762   -9.8617   32.5737 C.ar    1  UNL1        0.0053
      2 C          -7.7399  -10.5949   33.7657 C.ar    1  UNL1        0.0033
      3 C          -8.7555  -11.5057   34.0556 C.ar    1  UNL1        0.0382
      4 C          -9.7990  -11.7053   33.1482 C.ar    1  UNL1        0.1529
      5 C          -9.8161  -11.0292   31.9183 C.ar    1  UNL1        0.0882
      6 C          -8.8158  -10.0708   31.6565 C.ar    1  UNL1        0.0181
      7 N         -10.8407  -11.3660   30.9541 N.am    1  UNL1       -0.2512
      8 C         -12.0172  -12.0634   31.4178 C.2     1  UNL1        0.2698
      9 O         -12.9985  -12.2293   30.6404 O.2     1  UNL1       -0.2704
     10 C         -12.1140  -12.5685   32.8447 C.3     1  UNL1        0.2197
     11 C         -12.9877  -11.5925   33.6548 C.3     1  UNL1        0.0579
     12 O         -10.8234  -12.5972   33.4662 O.3     1  UNL1       -0.4686
     13 C          -6.9626   -7.5272   32.0908 C.ar    1  UNL1        0.0645
     14 N          -5.9345   -6.6786   31.8241 N.ar    1  UNL1       -0.2183
     15 C          -4.6594   -7.1242   31.6969 C.ar    1  UNL1        0.2145
     16 N          -3.6077   -6.2051   31.4118 N.pl3   1  UNL1       -0.3274
     17 N          -4.3863   -8.4451   31.8414 N.ar    1  UNL1       -0.1995
     18 C          -5.3646   -9.3460   32.1183 C.ar    1  UNL1        0.1293
     19 N          -5.0138  -10.7285   32.2477 N.pl3   1  UNL1       -0.3425
     20 C          -6.6967   -8.9044   32.2612 C.ar    1  UNL1        0.0449
     21 H          -3.8111   -5.1872   31.2997 H       1  UNL1        0.1452
     22 H          -2.6241   -6.5414   31.3127 H       1  UNL1        0.1452
     23 H          -5.7252  -11.4690   32.4343 H       1  UNL1        0.1437
     24 H          -4.0183  -11.0244   32.1393 H       1  UNL1        0.1437
     25 C          -8.5385   -5.7466   31.3270 C.3     1  UNL1        0.0067
     26 C          -8.3430   -6.9432   32.2519 C.3     1  UNL1        0.0460
     27 C         -12.6537  -13.9991   32.8279 C.ar    1  UNL1        0.0228
     28 C         -11.8135  -15.0358   32.3711 C.ar    1  UNL1       -0.0004
     29 C         -12.2771  -16.3512   32.2931 C.ar    1  UNL1        0.0007
     30 C         -13.5906  -16.6534   32.6523 C.ar    1  UNL1        0.0114
     31 C         -14.4480  -15.6380   33.0816 C.ar    1  UNL1        0.0575
     32 CL        -16.1059  -16.0178   33.5118 Cl      1  UNL1       -0.0823
     33 C         -13.9897  -14.3178   33.1607 C.ar    1  UNL1        0.0109
     34 C         -10.5883  -11.3151   29.5007 C.3     1  UNL1        0.1196
     35 C         -10.8184   -9.8975   28.9590 C.3     1  UNL1        0.1113
     36 N         -11.5977   -9.0857   29.8942 N.am    1  UNL1       -0.3026
     37 C         -11.3908   -7.6746   30.0213 C.2     1  UNL1        0.2230
     38 C         -12.1853   -6.8943   31.0174 C.3     1  UNL1        0.0946
     39 O         -10.5284   -7.0890   29.3120 O.2     1  UNL1       -0.2751
     40 H         -12.3441   -9.5269   30.4759 H       1  UNL1        0.1495
@<TRIPOS>BOND
     1    25    26    1
     2    26    13    1
     3    13    14   ar
     4    14    15   ar
     5    15    16    1
     6    15    17   ar
     7    17    18   ar
     8    18    19    1
     9    18    20   ar
    10    20     1    1
    11     1     2   ar
    12     2     3   ar
    13     3     4   ar
    14     4     5   ar
    15     5     6   ar
    16     5     7    1
    17     7    34    1
    18    34    35    1
    19    35    36    1
    20    36    37   am
    21    37    38    1
    22    37    39    2
    23     7     8   am
    24     8     9    2
    25     8    10    1
    26    10    11    1
    27    10    27    1
    28    27    28   ar
    29    28    29   ar
    30    29    30   ar
    31    30    31   ar
    32    31    32    1
    33    31    33   ar
    34    10    12    1
    35    20    13   ar
    36     6     1   ar
    37    33    27   ar
    38    12     4    1
    39    16    21    1
    40    16    22    1
    41    19    23    1
    42    19    24    1
    43    36    40    1
