@<TRIPOS>MOLECULE
*****
 45 50 0 0 0
SMALL
GASTEIGER

@<TRIPOS>ATOM
      1 C          60.6095   86.8672    8.2735 C.ar    1  UNL1        0.0702
      2 C          59.6830   85.8916    8.6607 C.ar    1  UNL1        0.0191
      3 C          59.8272   85.2281    9.8799 C.ar    1  UNL1        0.0356
      4 C          60.9240   85.5254   10.7041 C.ar    1  UNL1        0.1318
      5 N          61.8184   86.4715   10.3037 N.ar    1  UNL1       -0.2279
      6 C          61.6952   87.1340    9.1232 C.ar    1  UNL1        0.1149
      7 N          61.0957   84.8783   11.9792 N.pl3   1  UNL1       -0.2932
      8 C          62.2489   85.1727   12.8415 C.3     1  UNL1        0.0923
      9 C          62.9194   83.8735   13.3202 C.3     1  UNL1        0.0252
     10 C          61.9245   82.6956   13.5019 C.3     1  UNL1        0.0472
     11 C          60.4834   83.2006   13.7107 C.3     1  UNL1        0.0252
     12 C          60.0249   84.0070   12.4861 C.3     1  UNL1        0.0923
     13 C          62.3670   81.7802   14.6601 C.3     1  UNL1        0.2054
     14 O          62.0615   80.4118   14.3850 O.3     1  UNL1       -0.4755
     15 C          61.1096   79.9559   13.4579 C.ar    1  UNL1        0.1388
     16 C          59.8534   79.5781   13.9391 C.ar    1  UNL1        0.0378
     17 C          58.8696   79.1110   13.0665 C.ar    1  UNL1        0.0147
     18 C          59.1232   79.0216   11.6940 C.ar    1  UNL1        0.0641
     19 CL         57.8719   78.3272   10.6672 Cl      1  UNL1       -0.0820
     20 C          60.3810   79.4133   11.1864 C.ar    1  UNL1        0.0890
     21 C          61.3724   79.8604   12.0774 C.ar    1  UNL1        0.0442
     22 C          60.6938   79.3527    9.7425 C.2     1  UNL1        0.3390
     23 O          60.1059   80.1285    8.9433 O.2     1  UNL1       -0.2451
     24 O          61.5942   78.4182    9.2366 O.3     1  UNL1       -0.4771
     25 H          61.9958   77.6963    9.8222 H       1  UNL1        0.2954
     26 C          59.9317   88.8545    6.8463 C.2     1  UNL1        0.2839
     27 O          59.3313   89.4171    7.8011 O.2     1  UNL1       -0.2665
     28 N          60.4593   87.5275    7.0049 N.am    1  UNL1       -0.2766
     29 H          60.6681   86.9764    6.1417 H       1  UNL1        0.1553
     30 C          57.5605   90.1170    5.0979 C.3     1  UNL1        0.0345
     31 C          59.0256   90.0955    4.7812 C.ar    1  UNL1        0.0202
     32 C          60.0579   89.5425    5.5474 C.ar    1  UNL1        0.1946
     33 O          61.2175   89.7212    4.9396 O.2     1  UNL1       -0.4492
     34 C          60.9903   90.3605    3.8183 C.ar    1  UNL1        0.1452
     35 C          61.9248   90.7534    2.8666 C.ar    1  UNL1        0.0375
     36 C          61.4607   91.4321    1.7266 C.ar    1  UNL1        0.0031
     37 C          60.0770   91.7071    1.5553 C.ar    1  UNL1        0.0002
     38 C          59.1586   91.2902    2.5487 C.ar    1  UNL1        0.0028
     39 C          59.6543   90.6190    3.6675 C.ar    1  UNL1        0.0337
     40 C          59.5985   92.4248    0.3465 C.ar    1  UNL1        0.0000
     41 C          60.4929   93.1731   -0.4426 C.ar    1  UNL1        0.0000
     42 C          60.0395   93.8479   -1.5802 C.ar    1  UNL1        0.0000
     43 C          58.6922   93.7850   -1.9423 C.ar    1  UNL1        0.0000
     44 C          57.7950   93.0466   -1.1675 C.ar    1  UNL1        0.0000
     45 C          58.2428   92.3690   -0.0293 C.ar    1  UNL1        0.0000
@<TRIPOS>BOND
     1    30    31    1
     2    31    32   ar
     3    32    26    1
     4    26    27    2
     5    26    28   am
     6    28     1    1
     7     1     2   ar
     8     2     3   ar
     9     3     4   ar
    10     4     7    1
    11     7     8    1
    12     8     9    1
    13     9    10    1
    14    10    13    1
    15    13    14    1
    16    14    15    1
    17    15    16   ar
    18    16    17   ar
    19    17    18   ar
    20    18    19    1
    21    18    20   ar
    22    20    22    1
    23    22    23    2
    24    22    24    1
    25    20    21   ar
    26    10    11    1
    27    11    12    1
    28     4     5   ar
    29     5     6   ar
    30    32    33   ar
    31    33    34   ar
    32    34    35   ar
    33    35    36   ar
    34    36    37   ar
    35    37    40    1
    36    40    41   ar
    37    41    42   ar
    38    42    43   ar
    39    43    44   ar
    40    44    45   ar
    41    37    38   ar
    42    38    39   ar
    43    39    31   ar
    44     6     1   ar
    45    39    34   ar
    46    12     7    1
    47    45    40   ar
    48    21    15   ar
    49    28    29    1
    50    24    25    1
@<TRIPOS>MOLECULE
*****
 45 50 0 0 0
SMALL
GASTEIGER

@<TRIPOS>ATOM
      1 C          59.1560   85.9694    8.0711 C.ar    1  UNL1        0.0702
      2 C          60.0558   86.1151    9.1337 C.ar    1  UNL1        0.0191
      3 C          59.9965   85.2532   10.2297 C.ar    1  UNL1        0.0356
      4 C          59.0099   84.2556   10.2731 C.ar    1  UNL1        0.1318
      5 N          58.1388   84.1375    9.2328 N.ar    1  UNL1       -0.2279
      6 C          58.1810   84.9620    8.1529 C.ar    1  UNL1        0.1149
      7 N          58.9301   83.3332   11.3763 N.pl3   1  UNL1       -0.2932
      8 C          59.8559   83.4146   12.5148 C.3     1  UNL1        0.0923
      9 C          60.4629   82.0357   12.8256 C.3     1  UNL1        0.0252
     10 C          59.5045   80.8546   12.5148 C.3     1  UNL1        0.0472
     11 C          58.0317   81.3090   12.5090 C.3     1  UNL1        0.0252
     12 C          57.8140   82.3770   11.4263 C.3     1  UNL1        0.0923
     13 C          59.7257   79.6958   13.5064 C.3     1  UNL1        0.2054
     14 O          61.1030   79.3206   13.5664 O.3     1  UNL1       -0.4755
     15 C          62.1924   80.2071   13.5979 C.ar    1  UNL1        0.1388
     16 C          62.6455   80.6459   14.8447 C.ar    1  UNL1        0.0378
     17 C          63.7195   81.5319   14.9385 C.ar    1  UNL1        0.0147
     18 C          64.3652   81.9886   13.7849 C.ar    1  UNL1        0.0641
     19 CL         65.6449   83.1839   13.9740 Cl      1  UNL1       -0.0820
     20 C          63.9321   81.5447   12.5166 C.ar    1  UNL1        0.0890
     21 C          62.8345   80.6701   12.4328 C.ar    1  UNL1        0.0442
     22 C          64.5906   81.9853   11.2683 C.2     1  UNL1        0.3390
     23 O          64.4880   81.2839   10.2272 O.2     1  UNL1       -0.2451
     24 O          65.3668   83.1412   11.2296 O.3     1  UNL1       -0.4771
     25 H          65.5779   83.6677   12.0684 H       1  UNL1        0.2954
     26 C          59.5806   88.2633    7.0696 C.2     1  UNL1        0.2839
     27 O          59.6221   88.8199    8.1998 O.2     1  UNL1       -0.2665
     28 N          59.2158   86.8780    6.9582 N.am    1  UNL1       -0.2766
     29 H          58.8931   86.5293    6.0273 H       1  UNL1        0.1553
     30 C          57.4434   89.6660    5.1361 C.3     1  UNL1        0.0345
     31 C          58.9368   89.6600    5.0056 C.ar    1  UNL1        0.0202
     32 C          59.8666   89.0456    5.8520 C.ar    1  UNL1        0.1946
     33 O          61.0927   89.2628    5.4100 O.2     1  UNL1       -0.4492
     34 C          61.0060   89.9852    4.3199 C.ar    1  UNL1        0.1452
     35 C          62.0513   90.4428    3.5254 C.ar    1  UNL1        0.0375
     36 C          61.7317   91.2072    2.3900 C.ar    1  UNL1        0.0031
     37 C          60.3795   91.5020    2.0670 C.ar    1  UNL1        0.0002
     38 C          59.3450   91.0172    2.9030 C.ar    1  UNL1        0.0028
     39 C          59.6985   90.2616    4.0220 C.ar    1  UNL1        0.0337
     40 C          60.0541   92.3105    0.8647 C.ar    1  UNL1        0.0000
     41 C          58.7482   92.3167    0.3383 C.ar    1  UNL1        0.0000
     42 C          58.4447   93.0789   -0.7939 C.ar    1  UNL1        0.0000
     43 C          59.4379   93.8408   -1.4132 C.ar    1  UNL1        0.0000
     44 C          60.7371   93.8426   -0.9010 C.ar    1  UNL1        0.0000
     45 C          61.0464   93.0831    0.2316 C.ar    1  UNL1        0.0000
@<TRIPOS>BOND
     1    30    31    1
     2    31    32   ar
     3    32    26    1
     4    26    27    2
     5    26    28   am
     6    28     1    1
     7     1     2   ar
     8     2     3   ar
     9     3     4   ar
    10     4     7    1
    11     7     8    1
    12     8     9    1
    13     9    10    1
    14    10    13    1
    15    13    14    1
    16    14    15    1
    17    15    16   ar
    18    16    17   ar
    19    17    18   ar
    20    18    19    1
    21    18    20   ar
    22    20    22    1
    23    22    23    2
    24    22    24    1
    25    20    21   ar
    26    10    11    1
    27    11    12    1
    28     4     5   ar
    29     5     6   ar
    30    32    33   ar
    31    33    34   ar
    32    34    35   ar
    33    35    36   ar
    34    36    37   ar
    35    37    40    1
    36    40    41   ar
    37    41    42   ar
    38    42    43   ar
    39    43    44   ar
    40    44    45   ar
    41    37    38   ar
    42    38    39   ar
    43    39    31   ar
    44     6     1   ar
    45    39    34   ar
    46    12     7    1
    47    45    40   ar
    48    21    15   ar
    49    28    29    1
    50    24    25    1
