@<TRIPOS>MOLECULE
*****
 41 45 0 0 0
SMALL
GASTEIGER

@<TRIPOS>ATOM
      1 C          -8.8991  -10.4061   32.2193 C.3     1  UNL1        0.1332
      2 N          -9.2538  -11.5695   31.4060 N.ar    1  UNL1       -0.2977
      3 C         -10.3511  -12.3740   31.5087 C.ar    1  UNL1        0.2018
      4 N         -10.3595  -13.4048   30.6247 N.ar    1  UNL1       -0.2135
      5 C          -9.2321  -13.2079   29.9202 C.ar    1  UNL1        0.0999
      6 C          -8.7660  -13.9681   28.8396 C.ar    1  UNL1        0.0282
      7 C          -7.5777  -13.5546   28.1863 C.ar    1  UNL1        0.0888
      8 C          -6.9096  -12.4088   28.6831 C.ar    1  UNL1        0.1401
      9 C          -7.3831  -11.6894   29.7566 C.ar    1  UNL1        0.0327
     10 C          -8.5670  -12.1007   30.3764 C.ar    1  UNL1        0.0789
     11 C          -6.4666  -10.5537   30.0523 C.3     1  UNL1        0.0709
     12 C          -5.3832  -10.6868   28.9324 C.3     1  UNL1        0.1375
     13 C          -3.9779  -10.8578   29.5245 C.3     1  UNL1        0.0439
     14 C          -5.4195   -9.4848   27.9788 C.3     1  UNL1        0.0439
     15 O          -5.7339  -11.8667   28.2073 O.3     1  UNL1       -0.4824
     16 C          -7.0624  -14.3222   27.0333 C.2     1  UNL1        0.2525
     17 O          -5.8480  -14.6618   27.0226 O.2     1  UNL1       -0.2697
     18 N          -7.9253  -14.6798   25.9380 N.am    1  UNL1       -0.2803
     19 H          -8.9167  -14.3536   25.9490 H       1  UNL1        0.1552
     20 C          -7.4881  -15.3998   24.7737 C.ar    1  UNL1        0.0510
     21 C          -8.2596  -16.4704   24.3026 C.ar    1  UNL1        0.0205
     22 C          -7.8551  -17.1925   23.1766 C.ar    1  UNL1        0.0227
     23 S          -8.8708  -18.5321   22.5618 S.3     1  UNL1       -0.1414
     24 C          -6.6608  -16.8658   22.5272 C.ar    1  UNL1        0.0098
     25 C          -5.8449  -15.8318   23.0172 C.ar    1  UNL1        0.0731
     26 C          -6.2741  -15.0922   24.1338 C.ar    1  UNL1        0.0186
     27 H          -8.2083  -19.4760   23.3688 H       1  UNL1        0.1071
     28 C          -4.5691  -15.4605   22.3028 C.3     1  UNL1        0.4186
     29 F          -4.7020  -15.6357   20.9362 F       1  UNL1       -0.1659
     30 F          -3.5186  -16.2495   22.7388 F       1  UNL1       -0.1659
     31 F          -4.2736  -14.1349   22.5599 F       1  UNL1       -0.1659
     32 N         -11.4313  -12.1680   32.4304 N.pl3   1  UNL1       -0.2814
     33 H         -11.6835  -11.1819   32.6658 H       1  UNL1        0.1551
     34 C         -12.1485  -13.2235   33.0911 C.ar    1  UNL1        0.0889
     35 C         -13.4054  -13.6042   32.5915 C.ar    1  UNL1        0.1543
     36 F         -13.9190  -12.9909   31.4954 F       1  UNL1       -0.2028
     37 C         -14.1261  -14.6353   33.2000 C.ar    1  UNL1        0.0310
     38 C         -13.6083  -15.2847   34.3211 C.ar    1  UNL1        0.0033
     39 C         -12.3741  -14.8966   34.8458 C.ar    1  UNL1        0.0128
     40 C         -11.6420  -13.8645   34.2461 C.ar    1  UNL1        0.0733
     41 CL        -10.1420  -13.3614   35.0178 Cl      1  UNL1       -0.0809
@<TRIPOS>BOND
     1     1     2    1
     2     2     3   ar
     3     3    32    1
     4    32    34    1
     5    34    35   ar
     6    35    36    1
     7    35    37   ar
     8    37    38   ar
     9    38    39   ar
    10    39    40   ar
    11    40    41    1
    12     3     4   ar
    13     4     5   ar
    14     5     6   ar
    15     6     7   ar
    16     7    16    1
    17    16    17    2
    18    16    18   am
    19    18    20    1
    20    20    21   ar
    21    21    22   ar
    22    22    23    1
    23    22    24   ar
    24    24    25   ar
    25    25    28    1
    26    28    29    1
    27    28    30    1
    28    28    31    1
    29    25    26   ar
    30     7     8   ar
    31     8     9   ar
    32     9    10   ar
    33     9    11    1
    34    11    12    1
    35    12    13    1
    36    12    14    1
    37    12    15    1
    38    10     2   ar
    39    40    34   ar
    40    10     5   ar
    41    26    20   ar
    42    15     8    1
    43    32    33    1
    44    18    19    1
    45    23    27    1
@<TRIPOS>MOLECULE
*****
 41 45 0 0 0
SMALL
GASTEIGER

@<TRIPOS>ATOM
      1 C          -8.9061  -10.3803   32.1957 C.3     1  UNL1        0.1332
      2 N          -9.2472  -11.5541   31.3916 N.ar    1  UNL1       -0.2977
      3 C         -10.3388  -12.3661   31.4959 C.ar    1  UNL1        0.2018
      4 N         -10.3342  -13.4053   30.6218 N.ar    1  UNL1       -0.2135
      5 C          -9.2045  -13.2063   29.9216 C.ar    1  UNL1        0.0999
      6 C          -8.7266  -13.9730   28.8509 C.ar    1  UNL1        0.0282
      7 C          -7.5379  -13.5565   28.2002 C.ar    1  UNL1        0.0888
      8 C          -6.8815  -12.4008   28.6897 C.ar    1  UNL1        0.1401
      9 C          -7.3664  -11.6750   29.7537 C.ar    1  UNL1        0.0327
     10 C          -8.5506  -12.0897   30.3709 C.ar    1  UNL1        0.0789
     11 C          -6.4605  -10.5294   30.0436 C.3     1  UNL1        0.0709
     12 C          -5.3698  -10.6647   28.9310 C.3     1  UNL1        0.1375
     13 C          -3.9666  -10.8190   29.5324 C.3     1  UNL1        0.0439
     14 C          -5.4102   -9.4721   27.9658 C.3     1  UNL1        0.0439
     15 O          -5.7074  -11.8541   28.2152 O.3     1  UNL1       -0.4824
     16 C          -7.0102  -14.3310   27.0574 C.2     1  UNL1        0.2525
     17 O          -5.7836  -14.6225   27.0350 O.2     1  UNL1       -0.2697
     18 N          -7.8749  -14.7489   25.9852 N.am    1  UNL1       -0.2803
     19 H          -8.8782  -14.4619   26.0046 H       1  UNL1        0.1552
     20 C          -7.4274  -15.4791   24.8313 C.ar    1  UNL1        0.0510
     21 C          -6.1955  -15.1506   24.2501 C.ar    1  UNL1        0.0205
     22 C          -5.7384  -15.8396   23.1234 C.ar    1  UNL1        0.0227
     23 S          -4.1446  -15.4367   22.4151 S.3     1  UNL1       -0.1414
     24 C          -6.5227  -16.8465   22.5526 C.ar    1  UNL1        0.0098
     25 C          -7.7859  -17.1527   23.0870 C.ar    1  UNL1        0.0731
     26 C          -8.2250  -16.4738   24.2378 C.ar    1  UNL1        0.0186
     27 H          -4.7087  -14.4716   21.5599 H       1  UNL1        0.1071
     28 C          -8.6223  -18.2566   22.4887 C.3     1  UNL1        0.4186
     29 F          -9.8480  -18.3453   23.1258 F       1  UNL1       -0.1659
     30 F          -7.9813  -19.4770   22.6146 F       1  UNL1       -0.1659
     31 F          -8.8302  -17.9933   21.1478 F       1  UNL1       -0.1659
     32 N         -11.4257  -12.1599   32.4097 N.pl3   1  UNL1       -0.2814
     33 H         -11.6791  -11.1737   32.6435 H       1  UNL1        0.1551
     34 C         -12.1483  -13.2152   33.0647 C.ar    1  UNL1        0.0889
     35 C         -13.4007  -13.5965   32.5544 C.ar    1  UNL1        0.1543
     36 F         -13.9050  -12.9841   31.4536 F       1  UNL1       -0.2028
     37 C         -14.1263  -14.6275   33.1573 C.ar    1  UNL1        0.0310
     38 C         -13.6181  -15.2761   34.2832 C.ar    1  UNL1        0.0033
     39 C         -12.3886  -14.8874   34.8184 C.ar    1  UNL1        0.0128
     40 C         -11.6516  -13.8554   34.2245 C.ar    1  UNL1        0.0733
     41 CL        -10.1586  -13.3514   35.0088 Cl      1  UNL1       -0.0809
@<TRIPOS>BOND
     1     1     2    1
     2     2     3   ar
     3     3    32    1
     4    32    34    1
     5    34    35   ar
     6    35    36    1
     7    35    37   ar
     8    37    38   ar
     9    38    39   ar
    10    39    40   ar
    11    40    41    1
    12     3     4   ar
    13     4     5   ar
    14     5     6   ar
    15     6     7   ar
    16     7    16    1
    17    16    17    2
    18    16    18   am
    19    18    20    1
    20    20    21   ar
    21    21    22   ar
    22    22    23    1
    23    22    24   ar
    24    24    25   ar
    25    25    28    1
    26    28    29    1
    27    28    30    1
    28    28    31    1
    29    25    26   ar
    30     7     8   ar
    31     8     9   ar
    32     9    10   ar
    33     9    11    1
    34    11    12    1
    35    12    13    1
    36    12    14    1
    37    12    15    1
    38    10     2   ar
    39    40    34   ar
    40    10     5   ar
    41    26    20   ar
    42    15     8    1
    43    32    33    1
    44    18    19    1
    45    23    27    1
@<TRIPOS>MOLECULE
*****
 41 45 0 0 0
SMALL
GASTEIGER

@<TRIPOS>ATOM
      1 C          -9.2237  -10.4614   32.9710 C.3     1  UNL1        0.1332
      2 N          -9.4418  -11.4835   31.9471 N.ar    1  UNL1       -0.2977
      3 C         -10.5215  -12.3010   31.7805 C.ar    1  UNL1        0.2018
      4 N         -10.3908  -13.1789   30.7528 N.ar    1  UNL1       -0.2135
      5 C          -9.1890  -12.8659   30.2390 C.ar    1  UNL1        0.0999
      6 C          -8.5702  -13.4425   29.1222 C.ar    1  UNL1        0.0282
      7 C          -7.3202  -12.9235   28.7002 C.ar    1  UNL1        0.0888
      8 C          -6.7509  -11.8666   29.4519 C.ar    1  UNL1        0.1401
      9 C          -7.3751  -11.3292   30.5545 C.ar    1  UNL1        0.0327
     10 C          -8.6165  -11.8408   30.9444 C.ar    1  UNL1        0.0789
     11 C          -6.5337  -10.2489   31.1396 C.3     1  UNL1        0.0709
     12 C          -5.3143  -10.1964   30.1618 C.3     1  UNL1        0.1375
     13 C          -3.9911  -10.4502   30.8962 C.3     1  UNL1        0.0439
     14 C          -5.2617   -8.8588   29.4111 C.3     1  UNL1        0.0439
     15 O          -5.5393  -11.2488   29.2222 O.3     1  UNL1       -0.4824
     16 C          -6.6432  -13.4957   27.5177 C.2     1  UNL1        0.2525
     17 O          -5.5562  -12.9853   27.1331 O.2     1  UNL1       -0.2697
     18 N          -7.2083  -14.6159   26.8122 N.am    1  UNL1       -0.2803
     19 H          -8.1289  -14.9966   27.1238 H       1  UNL1        0.1552
     20 C          -6.6211  -15.2058   25.6408 C.ar    1  UNL1        0.0510
     21 C          -5.4431  -15.9536   25.7695 C.ar    1  UNL1        0.0205
     22 C          -4.8466  -16.5331   24.6464 C.ar    1  UNL1        0.0227
     23 S          -3.3642  -17.5193   24.8308 S.3     1  UNL1       -0.1414
     24 C          -5.4096  -16.3474   23.3802 C.ar    1  UNL1        0.0098
     25 C          -6.5592  -15.5544   23.2227 C.ar    1  UNL1        0.0731
     26 C          -7.1688  -14.9990   24.3620 C.ar    1  UNL1        0.0186
     27 H          -2.5319  -16.3975   24.6578 H       1  UNL1        0.1071
     28 C          -7.1834  -15.3743   21.8612 C.3     1  UNL1        0.4186
     29 F          -6.2599  -14.8751   20.9590 F       1  UNL1       -0.1659
     30 F          -8.2460  -14.4894   21.9250 F       1  UNL1       -0.1659
     31 F          -7.6419  -16.5964   21.4062 F       1  UNL1       -0.1659
     32 N         -11.7147  -12.2502   32.5760 N.pl3   1  UNL1       -0.2814
     33 H         -12.0483  -11.3100   32.8861 H       1  UNL1        0.1551
     34 C         -12.4457  -13.4052   33.0193 C.ar    1  UNL1        0.0889
     35 C         -13.6394  -13.7450   32.3607 C.ar    1  UNL1        0.1543
     36 F         -14.0794  -12.9990   31.3161 F       1  UNL1       -0.2028
     37 C         -14.3704  -14.8687   32.7556 C.ar    1  UNL1        0.0310
     38 C         -13.9270  -15.6538   33.8204 C.ar    1  UNL1        0.0033
     39 C         -12.7584  -15.3107   34.5028 C.ar    1  UNL1        0.0128
     40 C         -12.0169  -14.1870   34.1177 C.ar    1  UNL1        0.0733
     41 CL        -10.6092  -13.7574   35.0834 Cl      1  UNL1       -0.0809
@<TRIPOS>BOND
     1     1     2    1
     2     2     3   ar
     3     3    32    1
     4    32    34    1
     5    34    35   ar
     6    35    36    1
     7    35    37   ar
     8    37    38   ar
     9    38    39   ar
    10    39    40   ar
    11    40    41    1
    12     3     4   ar
    13     4     5   ar
    14     5     6   ar
    15     6     7   ar
    16     7    16    1
    17    16    17    2
    18    16    18   am
    19    18    20    1
    20    20    21   ar
    21    21    22   ar
    22    22    23    1
    23    22    24   ar
    24    24    25   ar
    25    25    28    1
    26    28    29    1
    27    28    30    1
    28    28    31    1
    29    25    26   ar
    30     7     8   ar
    31     8     9   ar
    32     9    10   ar
    33     9    11    1
    34    11    12    1
    35    12    13    1
    36    12    14    1
    37    12    15    1
    38    10     2   ar
    39    40    34   ar
    40    10     5   ar
    41    26    20   ar
    42    15     8    1
    43    32    33    1
    44    18    19    1
    45    23    27    1
@<TRIPOS>MOLECULE
*****
 41 45 0 0 0
SMALL
GASTEIGER

@<TRIPOS>ATOM
      1 C          -9.2733  -10.0958   34.1862 C.3     1  UNL1        0.1332
      2 N          -8.5339  -10.3484   32.9493 N.ar    1  UNL1       -0.2977
      3 C          -7.3605   -9.7902   32.5329 C.ar    1  UNL1        0.2018
      4 N          -6.9603  -10.2082   31.3045 N.ar    1  UNL1       -0.2135
      5 C          -7.9128  -11.0918   30.9607 C.ar    1  UNL1        0.0999
      6 C          -7.9708  -11.8612   29.7914 C.ar    1  UNL1        0.0282
      7 C          -9.0331  -12.7886   29.6458 C.ar    1  UNL1        0.0888
      8 C          -9.9964  -12.8647   30.6813 C.ar    1  UNL1        0.1401
      9 C          -9.9222  -12.0853   31.8132 C.ar    1  UNL1        0.0327
     10 C          -8.8568  -11.1899   31.9484 C.ar    1  UNL1        0.0789
     11 C         -11.0750  -12.3777   32.7092 C.3     1  UNL1        0.0709
     12 C         -11.8296  -13.5102   31.9384 C.3     1  UNL1        0.1375
     13 C         -13.2770  -13.1100   31.6229 C.3     1  UNL1        0.0439
     14 C         -11.7977  -14.8305   32.7202 C.3     1  UNL1        0.0439
     15 O         -11.1110  -13.6765   30.7149 O.3     1  UNL1       -0.4824
     16 C          -9.1203  -13.6286   28.4329 C.2     1  UNL1        0.2525
     17 O         -10.2273  -13.7225   27.8365 O.2     1  UNL1       -0.2697
     18 N          -7.9662  -14.3303   27.9350 N.am    1  UNL1       -0.2803
     19 H          -7.0704  -14.2704   28.4673 H       1  UNL1        0.1552
     20 C          -7.9831  -15.1850   26.7799 C.ar    1  UNL1        0.0510
     21 C          -8.8441  -16.2902   26.7602 C.ar    1  UNL1        0.0205
     22 C          -8.8765  -17.1422   25.6528 C.ar    1  UNL1        0.0227
     23 S         -10.0100  -18.5273   25.6239 S.3     1  UNL1       -0.1414
     24 C          -8.0283  -16.9102   24.5658 C.ar    1  UNL1        0.0098
     25 C          -7.1179  -15.8398   24.5902 C.ar    1  UNL1        0.0731
     26 C          -7.1125  -14.9712   25.6963 C.ar    1  UNL1        0.0186
     27 H          -9.0635  -19.3832   26.2179 H       1  UNL1        0.1071
     28 C          -6.2204  -15.5722   23.4076 C.3     1  UNL1        0.4186
     29 F          -5.7460  -16.7572   22.8721 F       1  UNL1       -0.1659
     30 F          -5.1328  -14.8035   23.7849 F       1  UNL1       -0.1659
     31 F          -6.9359  -14.8949   22.4381 F       1  UNL1       -0.1659
     32 N          -6.5770   -8.8670   33.3028 N.pl3   1  UNL1       -0.2814
     33 H          -6.6872   -8.8894   34.3414 H       1  UNL1        0.1551
     34 C          -5.6973   -7.8803   32.7392 C.ar    1  UNL1        0.0889
     35 C          -4.4893   -7.5949   33.3976 C.ar    1  UNL1        0.1543
     36 F          -4.1600   -8.2543   34.5368 F       1  UNL1       -0.2028
     37 C          -3.6030   -6.6508   32.8722 C.ar    1  UNL1        0.0310
     38 C          -3.9200   -5.9713   31.6956 C.ar    1  UNL1        0.0033
     39 C          -5.1303   -6.2235   31.0471 C.ar    1  UNL1        0.0128
     40 C          -6.0278   -7.1665   31.5632 C.ar    1  UNL1        0.0733
     41 CL         -7.5764   -7.3624   30.7497 Cl      1  UNL1       -0.0809
@<TRIPOS>BOND
     1     1     2    1
     2     2     3   ar
     3     3    32    1
     4    32    34    1
     5    34    35   ar
     6    35    36    1
     7    35    37   ar
     8    37    38   ar
     9    38    39   ar
    10    39    40   ar
    11    40    41    1
    12     3     4   ar
    13     4     5   ar
    14     5     6   ar
    15     6     7   ar
    16     7    16    1
    17    16    17    2
    18    16    18   am
    19    18    20    1
    20    20    21   ar
    21    21    22   ar
    22    22    23    1
    23    22    24   ar
    24    24    25   ar
    25    25    28    1
    26    28    29    1
    27    28    30    1
    28    28    31    1
    29    25    26   ar
    30     7     8   ar
    31     8     9   ar
    32     9    10   ar
    33     9    11    1
    34    11    12    1
    35    12    13    1
    36    12    14    1
    37    12    15    1
    38    10     2   ar
    39    40    34   ar
    40    10     5   ar
    41    26    20   ar
    42    15     8    1
    43    32    33    1
    44    18    19    1
    45    23    27    1
@<TRIPOS>MOLECULE
*****
 41 45 0 0 0
SMALL
GASTEIGER

@<TRIPOS>ATOM
      1 C          -9.2673  -10.0180   34.0838 C.3     1  UNL1        0.1332
      2 N          -8.4872  -10.3050   32.8798 N.ar    1  UNL1       -0.2977
      3 C          -7.2901   -9.7735   32.4974 C.ar    1  UNL1        0.2018
      4 N          -6.8521  -10.2202   31.2921 N.ar    1  UNL1       -0.2135
      5 C          -7.8059  -11.0947   30.9291 C.ar    1  UNL1        0.0999
      6 C          -7.8338  -11.8843   29.7722 C.ar    1  UNL1        0.0282
      7 C          -8.9054  -12.7971   29.6039 C.ar    1  UNL1        0.0888
      8 C          -9.9072  -12.8387   30.6042 C.ar    1  UNL1        0.1401
      9 C          -9.8616  -12.0399   31.7240 C.ar    1  UNL1        0.0327
     10 C          -8.7871  -11.1595   31.8827 C.ar    1  UNL1        0.0789
     11 C         -11.0513  -12.2974   32.5818 C.3     1  UNL1        0.0709
     12 C         -11.7959  -13.4315   31.8038 C.3     1  UNL1        0.1375
     13 C         -13.2238  -13.0141   31.4279 C.3     1  UNL1        0.0439
     14 C         -11.8148  -14.7376   32.6096 C.3     1  UNL1        0.0439
     15 O         -11.0357  -13.6318   30.6109 O.3     1  UNL1       -0.4824
     16 C          -8.9620  -13.6577   28.4037 C.2     1  UNL1        0.2525
     17 O         -10.0808  -13.8775   27.8652 O.2     1  UNL1       -0.2697
     18 N          -7.7654  -14.2383   27.8532 N.am    1  UNL1       -0.2803
     19 H          -6.8558  -14.0758   28.3387 H       1  UNL1        0.1552
     20 C          -7.7476  -15.1053   26.7073 C.ar    1  UNL1        0.0510
     21 C          -6.7746  -14.9105   25.7180 C.ar    1  UNL1        0.0205
     22 C          -6.7379  -15.7343   24.5898 C.ar    1  UNL1        0.0227
     23 S          -5.4648  -15.5000   23.3533 S.3     1  UNL1       -0.1414
     24 C          -7.6912  -16.7443   24.4289 C.ar    1  UNL1        0.0098
     25 C          -8.7089  -16.9197   25.3821 C.ar    1  UNL1        0.0731
     26 C          -8.7209  -16.1046   26.5282 C.ar    1  UNL1        0.0186
     27 H          -6.2605  -14.5927   22.6288 H       1  UNL1        0.1071
     28 C          -9.7227  -18.0255   25.2238 C.3     1  UNL1        0.4186
     29 F          -9.1991  -19.0702   24.4817 F       1  UNL1       -0.1659
     30 F         -10.8542  -17.5607   24.5757 F       1  UNL1       -0.1659
     31 F         -10.0807  -18.4961   26.4732 F       1  UNL1       -0.1659
     32 N          -6.5201   -8.8490   33.2792 N.pl3   1  UNL1       -0.2814
     33 H          -6.6464   -8.8715   34.3160 H       1  UNL1        0.1551
     34 C          -5.6334   -7.8609   32.7292 C.ar    1  UNL1        0.0889
     35 C          -4.4565   -7.5432   33.4280 C.ar    1  UNL1        0.1543
     36 F          -4.1627   -8.1735   34.5932 F       1  UNL1       -0.2028
     37 C          -3.5640   -6.5968   32.9174 C.ar    1  UNL1        0.0310
     38 C          -3.8443   -5.9471   31.7149 C.ar    1  UNL1        0.0033
     39 C          -5.0244   -6.2315   31.0252 C.ar    1  UNL1        0.0128
     40 C          -5.9276   -7.1771   31.5261 C.ar    1  UNL1        0.0733
     41 CL         -7.4400   -7.4138   30.6572 Cl      1  UNL1       -0.0809
@<TRIPOS>BOND
     1     1     2    1
     2     2     3   ar
     3     3    32    1
     4    32    34    1
     5    34    35   ar
     6    35    36    1
     7    35    37   ar
     8    37    38   ar
     9    38    39   ar
    10    39    40   ar
    11    40    41    1
    12     3     4   ar
    13     4     5   ar
    14     5     6   ar
    15     6     7   ar
    16     7    16    1
    17    16    17    2
    18    16    18   am
    19    18    20    1
    20    20    21   ar
    21    21    22   ar
    22    22    23    1
    23    22    24   ar
    24    24    25   ar
    25    25    28    1
    26    28    29    1
    27    28    30    1
    28    28    31    1
    29    25    26   ar
    30     7     8   ar
    31     8     9   ar
    32     9    10   ar
    33     9    11    1
    34    11    12    1
    35    12    13    1
    36    12    14    1
    37    12    15    1
    38    10     2   ar
    39    40    34   ar
    40    10     5   ar
    41    26    20   ar
    42    15     8    1
    43    32    33    1
    44    18    19    1
    45    23    27    1
@<TRIPOS>MOLECULE
*****
 41 45 0 0 0
SMALL
GASTEIGER

@<TRIPOS>ATOM
      1 C          -8.8943  -10.3969   31.6289 C.3     1  UNL1        0.1332
      2 N          -9.1676  -11.6373   30.9026 N.ar    1  UNL1       -0.2977
      3 C         -10.2460  -12.4658   31.0139 C.ar    1  UNL1        0.2018
      4 N         -10.1732  -13.5689   30.2252 N.ar    1  UNL1       -0.2135
      5 C          -9.0122  -13.3963   29.5706 C.ar    1  UNL1        0.0999
      6 C          -8.4620  -14.2311   28.5893 C.ar    1  UNL1        0.0282
      7 C          -7.2493  -13.8365   27.9700 C.ar    1  UNL1        0.0888
      8 C          -6.6442  -12.6305   28.4007 C.ar    1  UNL1        0.1401
      9 C          -7.2001  -11.8372   29.3782 C.ar    1  UNL1        0.0327
     10 C          -8.4066  -12.2324   29.9642 C.ar    1  UNL1        0.0789
     11 C          -6.3350  -10.6504   29.6238 C.3     1  UNL1        0.0709
     12 C          -5.1841  -10.8438   28.5828 C.3     1  UNL1        0.1375
     13 C          -3.8119  -10.9163   29.2659 C.3     1  UNL1        0.0439
     14 C          -5.1978   -9.7305   27.5264 C.3     1  UNL1        0.0439
     15 O          -5.4581  -12.0929   27.9459 O.3     1  UNL1       -0.4824
     16 C          -6.6455  -14.6834   26.9201 C.2     1  UNL1        0.2525
     17 O          -6.3198  -15.8674   27.2065 O.2     1  UNL1       -0.2697
     18 N          -6.4298  -14.1728   25.5916 N.am    1  UNL1       -0.2803
     19 H          -6.6697  -13.1776   25.3880 H       1  UNL1        0.1552
     20 C          -5.8239  -14.9283   24.5299 C.ar    1  UNL1        0.0510
     21 C          -6.1305  -14.6065   23.2010 C.ar    1  UNL1        0.0205
     22 C          -5.5611  -15.3286   22.1487 C.ar    1  UNL1        0.0227
     23 S          -5.9300  -14.8811   20.4553 S.3     1  UNL1       -0.1414
     24 C          -4.6997  -16.3965   22.4177 C.ar    1  UNL1        0.0098
     25 C          -4.4237  -16.7705   23.7440 C.ar    1  UNL1        0.0731
     26 C          -4.9786  -16.0202   24.7962 C.ar    1  UNL1        0.0186
     27 H          -7.0384  -15.7476   20.4114 H       1  UNL1        0.1071
     28 C          -3.4740  -17.9056   24.0367 C.3     1  UNL1        0.4186
     29 F          -2.2098  -17.6280   23.5460 F       1  UNL1       -0.1659
     30 F          -3.9178  -19.0770   23.4476 F       1  UNL1       -0.1659
     31 F          -3.3952  -18.0911   25.4042 F       1  UNL1       -0.1659
     32 N         -11.3841  -12.2169   31.8515 N.pl3   1  UNL1       -0.2814
     33 H         -11.8326  -11.2754   31.7892 H       1  UNL1        0.1551
     34 C         -11.9105  -13.1526   32.8066 C.ar    1  UNL1        0.0889
     35 C         -13.1678  -13.7317   32.5652 C.ar    1  UNL1        0.1543
     36 F         -13.8593  -13.4187   31.4405 F       1  UNL1       -0.2028
     37 C         -13.7059  -14.6555   33.4651 C.ar    1  UNL1        0.0310
     38 C         -13.0037  -14.9979   34.6211 C.ar    1  UNL1        0.0033
     39 C         -11.7670  -14.4078   34.8883 C.ar    1  UNL1        0.0128
     40 C         -11.2167  -13.4801   33.9953 C.ar    1  UNL1        0.0733
     41 CL         -9.7022  -12.7027   34.4431 Cl      1  UNL1       -0.0809
@<TRIPOS>BOND
     1     1     2    1
     2     2     3   ar
     3     3    32    1
     4    32    34    1
     5    34    35   ar
     6    35    36    1
     7    35    37   ar
     8    37    38   ar
     9    38    39   ar
    10    39    40   ar
    11    40    41    1
    12     3     4   ar
    13     4     5   ar
    14     5     6   ar
    15     6     7   ar
    16     7    16    1
    17    16    17    2
    18    16    18   am
    19    18    20    1
    20    20    21   ar
    21    21    22   ar
    22    22    23    1
    23    22    24   ar
    24    24    25   ar
    25    25    28    1
    26    28    29    1
    27    28    30    1
    28    28    31    1
    29    25    26   ar
    30     7     8   ar
    31     8     9   ar
    32     9    10   ar
    33     9    11    1
    34    11    12    1
    35    12    13    1
    36    12    14    1
    37    12    15    1
    38    10     2   ar
    39    40    34   ar
    40    10     5   ar
    41    26    20   ar
    42    15     8    1
    43    32    33    1
    44    18    19    1
    45    23    27    1
@<TRIPOS>MOLECULE
*****
 41 45 0 0 0
SMALL
GASTEIGER

@<TRIPOS>ATOM
      1 C         -11.5392   -9.9402   33.2657 C.3     1  UNL1        0.1332
      2 N         -10.6524  -10.1510   32.1212 N.ar    1  UNL1       -0.2977
      3 C          -9.8035   -9.2611   31.5302 C.ar    1  UNL1        0.2018
      4 N          -9.1501   -9.7616   30.4501 N.ar    1  UNL1       -0.2135
      5 C          -9.5896  -11.0303   30.3921 C.ar    1  UNL1        0.0999
      6 C          -9.2003  -12.0197   29.4799 C.ar    1  UNL1        0.0282
      7 C          -9.7376  -13.3232   29.6279 C.ar    1  UNL1        0.0888
      8 C         -10.6642  -13.5458   30.6757 C.ar    1  UNL1        0.1401
      9 C         -11.0399  -12.5503   31.5487 C.ar    1  UNL1        0.0327
     10 C         -10.4849  -11.2757   31.3993 C.ar    1  UNL1        0.0789
     11 C         -12.0297  -13.0786   32.5277 C.3     1  UNL1        0.0709
     12 C         -12.1446  -14.5842   32.1205 C.3     1  UNL1        0.1375
     13 C         -13.5864  -14.9614   31.7553 C.3     1  UNL1        0.0439
     14 C         -11.6165  -15.5018   33.2317 C.3     1  UNL1        0.0439
     15 O         -11.3151  -14.7266   30.9662 O.3     1  UNL1       -0.4824
     16 C          -9.3398  -14.3974   28.6940 C.2     1  UNL1        0.2525
     17 O          -9.4099  -15.5957   29.0802 O.2     1  UNL1       -0.2697
     18 N          -8.8794  -14.0891   27.3655 N.am    1  UNL1       -0.2803
     19 H          -8.7912  -13.0887   27.0811 H       1  UNL1        0.1552
     20 C          -8.4511  -15.0779   26.4148 C.ar    1  UNL1        0.0510
     21 C          -7.1897  -14.9508   25.8179 C.ar    1  UNL1        0.0205
     22 C          -6.7501  -15.8940   24.8851 C.ar    1  UNL1        0.0227
     23 S          -5.1204  -15.7415   24.1603 S.3     1  UNL1       -0.1414
     24 C          -7.5799  -16.9589   24.5217 C.ar    1  UNL1        0.0098
     25 C          -8.8702  -17.0730   25.0670 C.ar    1  UNL1        0.0731
     26 C          -9.2930  -16.1353   26.0262 C.ar    1  UNL1        0.0186
     27 H          -5.6081  -14.9597   23.0964 H       1  UNL1        0.1071
     28 C          -9.7571  -18.2356   24.6963 C.3     1  UNL1        0.4186
     29 F         -11.0300  -17.7991   24.3717 F       1  UNL1       -0.1659
     30 F          -9.8621  -19.1249   25.7519 F       1  UNL1       -0.1659
     31 F          -9.2149  -18.8915   23.6071 F       1  UNL1       -0.1659
     32 N          -9.5721   -7.9227   31.9926 N.pl3   1  UNL1       -0.2814
     33 H          -9.3367   -7.7948   33.0024 H       1  UNL1        0.1551
     34 C          -9.6974   -6.7473   31.1754 C.ar    1  UNL1        0.0889
     35 C          -8.5301   -6.0960   30.7424 C.ar    1  UNL1        0.1543
     36 F          -7.3101   -6.5831   31.0821 F       1  UNL1       -0.2028
     37 C          -8.6127   -4.9578   29.9357 C.ar    1  UNL1        0.0310
     38 C          -9.8587   -4.4494   29.5672 C.ar    1  UNL1        0.0033
     39 C         -11.0267   -5.0693   30.0149 C.ar    1  UNL1        0.0128
     40 C         -10.9582   -6.2100   30.8242 C.ar    1  UNL1        0.0733
     41 CL        -12.4674   -6.8813   31.4327 Cl      1  UNL1       -0.0809
@<TRIPOS>BOND
     1     1     2    1
     2     2     3   ar
     3     3    32    1
     4    32    34    1
     5    34    35   ar
     6    35    36    1
     7    35    37   ar
     8    37    38   ar
     9    38    39   ar
    10    39    40   ar
    11    40    41    1
    12     3     4   ar
    13     4     5   ar
    14     5     6   ar
    15     6     7   ar
    16     7    16    1
    17    16    17    2
    18    16    18   am
    19    18    20    1
    20    20    21   ar
    21    21    22   ar
    22    22    23    1
    23    22    24   ar
    24    24    25   ar
    25    25    28    1
    26    28    29    1
    27    28    30    1
    28    28    31    1
    29    25    26   ar
    30     7     8   ar
    31     8     9   ar
    32     9    10   ar
    33     9    11    1
    34    11    12    1
    35    12    13    1
    36    12    14    1
    37    12    15    1
    38    10     2   ar
    39    40    34   ar
    40    10     5   ar
    41    26    20   ar
    42    15     8    1
    43    32    33    1
    44    18    19    1
    45    23    27    1
@<TRIPOS>MOLECULE
*****
 41 45 0 0 0
SMALL
GASTEIGER

@<TRIPOS>ATOM
      1 C         -11.4045   -9.8916   33.2178 C.3     1  UNL1        0.1332
      2 N         -10.5231  -10.1231   32.0731 N.ar    1  UNL1       -0.2977
      3 C          -9.6550   -9.2527   31.4808 C.ar    1  UNL1        0.2018
      4 N          -9.0133   -9.7686   30.4009 N.ar    1  UNL1       -0.2135
      5 C          -9.4808  -11.0273   30.3443 C.ar    1  UNL1        0.0999
      6 C          -9.1139  -12.0260   29.4329 C.ar    1  UNL1        0.0282
      7 C          -9.6799  -13.3172   29.5824 C.ar    1  UNL1        0.0888
      8 C         -10.6107  -13.5181   30.6310 C.ar    1  UNL1        0.1401
      9 C         -10.9638  -12.5138   31.5031 C.ar    1  UNL1        0.0327
     10 C         -10.3808  -11.2519   31.3522 C.ar    1  UNL1        0.0789
     11 C         -11.9646  -13.0191   32.4831 C.3     1  UNL1        0.0709
     12 C         -12.1129  -14.5222   32.0775 C.3     1  UNL1        0.1375
     13 C         -13.5630  -14.8677   31.7133 C.3     1  UNL1        0.0439
     14 C         -11.6048  -15.4501   33.1893 C.3     1  UNL1        0.0439
     15 O         -11.2874  -14.6840   30.9228 O.3     1  UNL1       -0.4824
     16 C          -9.3064  -14.4008   28.6495 C.2     1  UNL1        0.2525
     17 O          -9.4001  -15.5968   29.0378 O.2     1  UNL1       -0.2697
     18 N          -8.8430  -14.1042   27.3193 N.am    1  UNL1       -0.2803
     19 H          -8.7349  -13.1063   27.0330 H       1  UNL1        0.1552
     20 C          -8.4372  -15.1031   26.3693 C.ar    1  UNL1        0.0510
     21 C          -7.1883  -14.9853   25.7451 C.ar    1  UNL1        0.0205
     22 C          -6.7707  -15.9384   24.8123 C.ar    1  UNL1        0.0227
     23 S          -5.1562  -15.7976   24.0523 S.3     1  UNL1       -0.1414
     24 C          -7.6108  -17.0043   24.4764 C.ar    1  UNL1        0.0098
     25 C          -8.8898  -17.1095   25.0494 C.ar    1  UNL1        0.0731
     26 C          -9.2900  -16.1616   26.0083 C.ar    1  UNL1        0.0186
     27 H          -5.6638  -15.0243   22.9914 H       1  UNL1        0.1071
     28 C          -9.7874  -18.2730   24.7083 C.3     1  UNL1        0.4186
     29 F          -9.2787  -18.9894   23.6387 F       1  UNL1       -0.1659
     30 F         -11.0532  -17.8286   24.3669 F       1  UNL1       -0.1659
     31 F          -9.8841  -19.1091   25.8047 F       1  UNL1       -0.1659
     32 N          -9.3938   -7.9193   31.9418 N.pl3   1  UNL1       -0.2814
     33 H          -9.0775   -7.8038   32.9307 H       1  UNL1        0.1551
     34 C          -9.5917   -6.7337   31.1543 C.ar    1  UNL1        0.0889
     35 C         -10.9042   -6.3041   30.8951 C.ar    1  UNL1        0.1543
     36 F         -11.9600   -6.9940   31.3955 F       1  UNL1       -0.2028
     37 C         -11.1352   -5.1485   30.1441 C.ar    1  UNL1        0.0310
     38 C         -10.0613   -4.4202   29.6311 C.ar    1  UNL1        0.0033
     39 C          -8.7528   -4.8521   29.8560 C.ar    1  UNL1        0.0128
     40 C          -8.5074   -6.0088   30.6062 C.ar    1  UNL1        0.0733
     41 CL         -6.8398   -6.5491   30.7668 Cl      1  UNL1       -0.0809
@<TRIPOS>BOND
     1     1     2    1
     2     2     3   ar
     3     3    32    1
     4    32    34    1
     5    34    35   ar
     6    35    36    1
     7    35    37   ar
     8    37    38   ar
     9    38    39   ar
    10    39    40   ar
    11    40    41    1
    12     3     4   ar
    13     4     5   ar
    14     5     6   ar
    15     6     7   ar
    16     7    16    1
    17    16    17    2
    18    16    18   am
    19    18    20    1
    20    20    21   ar
    21    21    22   ar
    22    22    23    1
    23    22    24   ar
    24    24    25   ar
    25    25    28    1
    26    28    29    1
    27    28    30    1
    28    28    31    1
    29    25    26   ar
    30     7     8   ar
    31     8     9   ar
    32     9    10   ar
    33     9    11    1
    34    11    12    1
    35    12    13    1
    36    12    14    1
    37    12    15    1
    38    10     2   ar
    39    40    34   ar
    40    10     5   ar
    41    26    20   ar
    42    15     8    1
    43    32    33    1
    44    18    19    1
    45    23    27    1
@<TRIPOS>MOLECULE
*****
 41 45 0 0 0
SMALL
GASTEIGER

@<TRIPOS>ATOM
      1 C         -10.6515   -9.9757   33.5450 C.3     1  UNL1        0.1332
      2 N          -9.8054  -10.2607   32.3859 N.ar    1  UNL1       -0.2977
      3 C          -8.8088   -9.4953   31.8540 C.ar    1  UNL1        0.2018
      4 N          -8.2437  -10.0283   30.7402 N.ar    1  UNL1       -0.2135
      5 C          -8.8978  -11.1936   30.5974 C.ar    1  UNL1        0.0999
      6 C          -8.6797  -12.1718   29.6186 C.ar    1  UNL1        0.0282
      7 C          -9.4380  -13.3681   29.6794 C.ar    1  UNL1        0.0888
      8 C         -10.3982  -13.4953   30.7128 C.ar    1  UNL1        0.1401
      9 C         -10.6016  -12.5108   31.6527 C.ar    1  UNL1        0.0327
     10 C          -9.8309  -11.3459   31.5886 C.ar    1  UNL1        0.0789
     11 C         -11.6770  -12.9226   32.5968 C.3     1  UNL1        0.0709
     12 C         -12.0498  -14.3538   32.0885 C.3     1  UNL1        0.1375
     13 C         -13.5323  -14.4471   31.7032 C.3     1  UNL1        0.0439
     14 C         -11.7001  -15.4227   33.1328 C.3     1  UNL1        0.0439
     15 O         -11.2481  -14.5609   30.9243 O.3     1  UNL1       -0.4824
     16 C          -9.2262  -14.4298   28.6733 C.2     1  UNL1        0.2525
     17 O          -9.5708  -15.6101   28.9529 O.2     1  UNL1       -0.2697
     18 N          -8.6375  -14.1296   27.3944 N.am    1  UNL1       -0.2803
     19 H          -8.3229  -13.1535   27.2000 H       1  UNL1        0.1552
     20 C          -8.3768  -15.1134   26.3800 C.ar    1  UNL1        0.0510
     21 C          -9.1757  -16.2631   26.3216 C.ar    1  UNL1        0.0205
     22 C          -8.9406  -17.2395   25.3498 C.ar    1  UNL1        0.0227
     23 S          -9.9941  -18.6840   25.2612 S.3     1  UNL1       -0.1414
     24 C          -7.8868  -17.0862   24.4438 C.ar    1  UNL1        0.0098
     25 C          -7.0395  -15.9677   24.5214 C.ar    1  UNL1        0.0731
     26 C          -7.3013  -14.9765   25.4843 C.ar    1  UNL1        0.0186
     27 H          -9.1693  -19.4058   26.1442 H       1  UNL1        0.1071
     28 C          -5.9182  -15.7873   23.5285 C.3     1  UNL1        0.4186
     29 F          -4.9588  -14.9203   24.0224 F       1  UNL1       -0.1659
     30 F          -6.3988  -15.2667   22.3393 F       1  UNL1       -0.1659
     31 F          -5.3309  -17.0133   23.2787 F       1  UNL1       -0.1659
     32 N          -8.3508   -8.2524   32.4057 N.pl3   1  UNL1       -0.2814
     33 H          -8.5439   -8.0728   33.4166 H       1  UNL1        0.1551
     34 C          -7.6974   -7.2194   31.6500 C.ar    1  UNL1        0.0889
     35 C          -8.4824   -6.2236   31.0447 C.ar    1  UNL1        0.1543
     36 F          -9.8316   -6.2361   31.1883 F       1  UNL1       -0.2028
     37 C          -7.8812   -5.1959   30.3131 C.ar    1  UNL1        0.0310
     38 C          -6.4943   -5.1608   30.1645 C.ar    1  UNL1        0.0033
     39 C          -5.7045   -6.1604   30.7356 C.ar    1  UNL1        0.0128
     40 C          -6.2942   -7.1962   31.4706 C.ar    1  UNL1        0.0733
     41 CL         -5.2485   -8.4750   32.0785 Cl      1  UNL1       -0.0809
@<TRIPOS>BOND
     1     1     2    1
     2     2     3   ar
     3     3    32    1
     4    32    34    1
     5    34    35   ar
     6    35    36    1
     7    35    37   ar
     8    37    38   ar
     9    38    39   ar
    10    39    40   ar
    11    40    41    1
    12     3     4   ar
    13     4     5   ar
    14     5     6   ar
    15     6     7   ar
    16     7    16    1
    17    16    17    2
    18    16    18   am
    19    18    20    1
    20    20    21   ar
    21    21    22   ar
    22    22    23    1
    23    22    24   ar
    24    24    25   ar
    25    25    28    1
    26    28    29    1
    27    28    30    1
    28    28    31    1
    29    25    26   ar
    30     7     8   ar
    31     8     9   ar
    32     9    10   ar
    33     9    11    1
    34    11    12    1
    35    12    13    1
    36    12    14    1
    37    12    15    1
    38    10     2   ar
    39    40    34   ar
    40    10     5   ar
    41    26    20   ar
    42    15     8    1
    43    32    33    1
    44    18    19    1
    45    23    27    1
