@<TRIPOS>MOLECULE
*****
 42 46 0 0 0
SMALL
GASTEIGER

@<TRIPOS>ATOM
      1 C         -30.0287   50.7866  -12.5400 C.3     1  UNL1        0.1332
      2 N         -29.8886   49.4353  -11.9981 N.ar    1  UNL1       -0.2977
      3 C         -30.4266   48.2786  -12.4711 C.ar    1  UNL1        0.2018
      4 N         -30.0854   47.1824  -11.7449 N.ar    1  UNL1       -0.2137
      5 C         -29.2920   47.6830  -10.7794 C.ar    1  UNL1        0.0983
      6 C         -28.6442   46.9721   -9.7457 C.ar    1  UNL1        0.0334
      7 C         -27.8070   47.7220   -8.8583 C.ar    1  UNL1        0.0872
      8 C         -27.7066   49.1187   -9.0510 C.ar    1  UNL1        0.1398
      9 C         -28.3681   49.7761  -10.0576 C.ar    1  UNL1        0.0327
     10 C         -29.1658   49.0400  -10.9330 C.ar    1  UNL1        0.0787
     11 C         -28.0542   51.2305  -10.0107 C.3     1  UNL1        0.0709
     12 C         -27.0523   51.3256   -8.8131 C.3     1  UNL1        0.1375
     13 C         -25.6699   51.8010   -9.2804 C.3     1  UNL1        0.0439
     14 C         -27.5872   52.2429   -7.7053 C.3     1  UNL1        0.0439
     15 O         -26.9421   49.9937   -8.3068 O.3     1  UNL1       -0.4824
     16 C         -27.0586   47.0947   -7.7491 C.2     1  UNL1        0.2523
     17 O         -25.8832   46.6847   -7.9508 O.2     1  UNL1       -0.2697
     18 N         -27.6875   46.8778   -6.4779 N.am    1  UNL1       -0.2803
     19 H         -28.7269   46.7673   -6.4650 H       1  UNL1        0.1552
     20 C         -26.9663   46.6974   -5.2472 C.ar    1  UNL1        0.0505
     21 C         -26.3867   45.4607   -4.9138 C.ar    1  UNL1        0.0147
     22 C         -25.6555   45.3217   -3.7326 C.ar    1  UNL1        0.0012
     23 C         -25.4921   46.4109   -2.8741 C.ar    1  UNL1        0.0039
     24 C         -26.0694   47.6536   -3.1854 C.ar    1  UNL1        0.0726
     25 C         -26.7804   47.7937   -4.3908 C.ar    1  UNL1        0.0185
     26 C         -25.8436   48.8465   -2.2905 C.3     1  UNL1        0.4186
     27 F         -24.6015   48.7730   -1.6839 F       1  UNL1       -0.1659
     28 F         -25.9001   50.0228   -3.0179 F       1  UNL1       -0.1659
     29 F         -26.8212   48.8738   -1.3136 F       1  UNL1       -0.1659
     30 C         -28.8748   45.4875   -9.5846 C.3     1  UNL1        0.1654
     31 O         -28.5101   44.8196  -10.7606 O.3     1  UNL1       -0.3772
     32 H         -28.7636   43.8692  -10.6289 H       1  UNL1        0.2109
     33 N         -31.2336   48.1977  -13.6556 N.pl3   1  UNL1       -0.2814
     34 H         -31.9689   48.9216  -13.8123 H       1  UNL1        0.1551
     35 C         -30.8711   47.3631  -14.7654 C.ar    1  UNL1        0.0889
     36 C         -31.0539   45.9734  -14.6694 C.ar    1  UNL1        0.1543
     37 F         -31.5834   45.4290  -13.5449 F       1  UNL1       -0.2028
     38 C         -30.7134   45.1414  -15.7398 C.ar    1  UNL1        0.0310
     39 C         -30.1758   45.6861  -16.9073 C.ar    1  UNL1        0.0033
     40 C         -29.9664   47.0635  -17.0045 C.ar    1  UNL1        0.0128
     41 C         -30.3038   47.9068  -15.9388 C.ar    1  UNL1        0.0733
     42 CL        -29.9322   49.6215  -16.0777 Cl      1  UNL1       -0.0809
@<TRIPOS>BOND
     1     1     2    1
     2     2     3   ar
     3     3    33    1
     4    33    35    1
     5    35    36   ar
     6    36    37    1
     7    36    38   ar
     8    38    39   ar
     9    39    40   ar
    10    40    41   ar
    11    41    42    1
    12     3     4   ar
    13     4     5   ar
    14     5     6   ar
    15     6    30    1
    16    30    31    1
    17     6     7   ar
    18     7    16    1
    19    16    17    2
    20    16    18   am
    21    18    20    1
    22    20    21   ar
    23    21    22   ar
    24    22    23   ar
    25    23    24   ar
    26    24    26    1
    27    26    27    1
    28    26    28    1
    29    26    29    1
    30    24    25   ar
    31     7     8   ar
    32     8     9   ar
    33     9    10   ar
    34     9    11    1
    35    11    12    1
    36    12    13    1
    37    12    14    1
    38    12    15    1
    39    10     2   ar
    40    41    35   ar
    41    10     5   ar
    42    25    20   ar
    43    15     8    1
    44    33    34    1
    45    31    32    1
    46    18    19    1
@<TRIPOS>MOLECULE
*****
 42 46 0 0 0
SMALL
GASTEIGER

@<TRIPOS>ATOM
      1 C         -31.2027   48.9543   -7.8449 C.3     1  UNL1        0.1332
      2 N         -29.8372   49.2606   -7.4194 N.ar    1  UNL1       -0.2977
      3 C         -29.1977   48.8582   -6.2879 C.ar    1  UNL1        0.2018
      4 N         -27.9167   49.3014   -6.1995 N.ar    1  UNL1       -0.2137
      5 C         -27.7520   50.0065   -7.3343 C.ar    1  UNL1        0.0983
      6 C         -26.5896   50.6830   -7.7641 C.ar    1  UNL1        0.0334
      7 C         -26.6408   51.3295   -9.0409 C.ar    1  UNL1        0.0872
      8 C         -27.8501   51.2777   -9.7709 C.ar    1  UNL1        0.1398
      9 C         -28.9655   50.6250   -9.3093 C.ar    1  UNL1        0.0327
     10 C         -28.9058   49.9785   -8.0752 C.ar    1  UNL1        0.0787
     11 C         -30.0694   50.7352  -10.3020 C.3     1  UNL1        0.0709
     12 C         -29.4043   51.5432  -11.4647 C.3     1  UNL1        0.1375
     13 C         -29.3305   50.7092  -12.7509 C.3     1  UNL1        0.0439
     14 C         -30.1424   52.8633  -11.7246 C.3     1  UNL1        0.0439
     15 O         -28.0779   51.8281  -11.0155 O.3     1  UNL1       -0.4824
     16 C         -25.4869   52.0535   -9.6138 C.2     1  UNL1        0.2523
     17 O         -25.5773   53.2940   -9.8223 O.2     1  UNL1       -0.2697
     18 N         -24.3040   51.3427  -10.0067 N.am    1  UNL1       -0.2803
     19 H         -24.4107   50.3389  -10.2782 H       1  UNL1        0.1552
     20 C         -23.0114   51.9556  -10.1512 C.ar    1  UNL1        0.0505
     21 C         -22.6294   52.5831  -11.3497 C.ar    1  UNL1        0.0147
     22 C         -21.3850   53.2078  -11.4517 C.ar    1  UNL1        0.0012
     23 C         -20.5109   53.2162  -10.3627 C.ar    1  UNL1        0.0039
     24 C         -20.8706   52.5884   -9.1581 C.ar    1  UNL1        0.0726
     25 C         -22.1372   51.9861   -9.0536 C.ar    1  UNL1        0.0185
     26 C         -19.9539   52.6484   -7.9619 C.3     1  UNL1        0.4186
     27 F         -20.6368   53.1017   -6.8464 F       1  UNL1       -0.1659
     28 F         -19.4405   51.3955   -7.6744 F       1  UNL1       -0.1659
     29 F         -18.9091   53.5120   -8.2323 F       1  UNL1       -0.1659
     30 C         -25.3695   50.7373   -6.8743 C.3     1  UNL1        0.1654
     31 O         -25.7630   50.8426   -5.5342 O.3     1  UNL1       -0.3772
     32 H         -24.9292   50.9623   -5.0095 H       1  UNL1        0.2109
     33 N         -29.7865   48.0005   -5.2985 N.pl3   1  UNL1       -0.2814
     34 H         -30.8246   47.8953   -5.2795 H       1  UNL1        0.1551
     35 C         -29.0057   47.0564   -4.5512 C.ar    1  UNL1        0.0889
     36 C         -28.4660   47.4385   -3.3116 C.ar    1  UNL1        0.1543
     37 F         -28.6952   48.6822   -2.8197 F       1  UNL1       -0.2028
     38 C         -27.7071   46.5339   -2.5635 C.ar    1  UNL1        0.0310
     39 C         -27.4692   45.2476   -3.0509 C.ar    1  UNL1        0.0033
     40 C         -27.9798   44.8649   -4.2933 C.ar    1  UNL1        0.0128
     41 C         -28.7415   45.7624   -5.0515 C.ar    1  UNL1        0.0733
     42 CL        -29.2806   45.2610   -6.6500 Cl      1  UNL1       -0.0809
@<TRIPOS>BOND
     1     1     2    1
     2     2     3   ar
     3     3    33    1
     4    33    35    1
     5    35    36   ar
     6    36    37    1
     7    36    38   ar
     8    38    39   ar
     9    39    40   ar
    10    40    41   ar
    11    41    42    1
    12     3     4   ar
    13     4     5   ar
    14     5     6   ar
    15     6    30    1
    16    30    31    1
    17     6     7   ar
    18     7    16    1
    19    16    17    2
    20    16    18   am
    21    18    20    1
    22    20    21   ar
    23    21    22   ar
    24    22    23   ar
    25    23    24   ar
    26    24    26    1
    27    26    27    1
    28    26    28    1
    29    26    29    1
    30    24    25   ar
    31     7     8   ar
    32     8     9   ar
    33     9    10   ar
    34     9    11    1
    35    11    12    1
    36    12    13    1
    37    12    14    1
    38    12    15    1
    39    10     2   ar
    40    41    35   ar
    41    10     5   ar
    42    25    20   ar
    43    15     8    1
    44    33    34    1
    45    31    32    1
    46    18    19    1
@<TRIPOS>MOLECULE
*****
 42 46 0 0 0
SMALL
GASTEIGER

@<TRIPOS>ATOM
      1 C         -31.4126   49.6905   -7.7512 C.3     1  UNL1        0.1332
      2 N         -29.9704   49.6783   -7.5076 N.ar    1  UNL1       -0.2977
      3 C         -29.3044   49.2076   -6.4186 C.ar    1  UNL1        0.2018
      4 N         -27.9544   49.3260   -6.5127 N.ar    1  UNL1       -0.2137
      5 C         -27.7747   49.8907   -7.7214 C.ar    1  UNL1        0.0983
      6 C         -26.5504   50.2290   -8.3378 C.ar    1  UNL1        0.0334
      7 C         -26.6107   50.7808   -9.6579 C.ar    1  UNL1        0.0872
      8 C         -27.8813   50.9800  -10.2442 C.ar    1  UNL1        0.1398
      9 C         -29.0507   50.6552   -9.6036 C.ar    1  UNL1        0.0327
     10 C         -28.9877   50.0984   -8.3267 C.ar    1  UNL1        0.0787
     11 C         -30.2153   50.9673  -10.4769 C.3     1  UNL1        0.0709
     12 C         -29.5330   51.5062  -11.7773 C.3     1  UNL1        0.1375
     13 C         -29.8247   50.5952  -12.9774 C.3     1  UNL1        0.0439
     14 C         -29.9645   52.9470  -12.0818 C.3     1  UNL1        0.0439
     15 O         -28.1304   51.4846  -11.5040 O.3     1  UNL1       -0.4824
     16 C         -25.4016   51.1575  -10.4196 C.2     1  UNL1        0.2523
     17 O         -25.4280   51.1183  -11.6798 O.2     1  UNL1       -0.2697
     18 N         -24.1836   51.4855   -9.7358 N.am    1  UNL1       -0.2803
     19 H         -24.0316   51.0661   -8.7904 H       1  UNL1        0.1552
     20 C         -23.1226   52.2629  -10.3166 C.ar    1  UNL1        0.0505
     21 C         -23.3051   53.6168  -10.6480 C.ar    1  UNL1        0.0147
     22 C         -22.2471   54.3620  -11.1722 C.ar    1  UNL1        0.0012
     23 C         -20.9984   53.7686  -11.3688 C.ar    1  UNL1        0.0039
     24 C         -20.7971   52.4148  -11.0507 C.ar    1  UNL1        0.0726
     25 C         -21.8595   51.6782  -10.4966 C.ar    1  UNL1        0.0185
     26 C         -19.4341   51.7881  -11.2054 C.3     1  UNL1        0.4186
     27 F         -18.4520   52.7624  -11.2542 F       1  UNL1       -0.1659
     28 F         -19.1568   50.9483  -10.1406 F       1  UNL1       -0.1659
     29 F         -19.4006   51.0556  -12.3771 F       1  UNL1       -0.1659
     30 C         -25.2482   50.0404   -7.5949 C.3     1  UNL1        0.1654
     31 O         -25.3898   50.4732   -6.2703 O.3     1  UNL1       -0.3772
     32 H         -24.4884   50.4085   -5.8602 H       1  UNL1        0.2109
     33 N         -29.9473   48.5902   -5.2932 N.pl3   1  UNL1       -0.2814
     34 H         -30.8496   48.9876   -4.9506 H       1  UNL1        0.1551
     35 C         -29.5712   47.2867   -4.8253 C.ar    1  UNL1        0.0889
     36 C         -30.2234   46.1554   -5.3436 C.ar    1  UNL1        0.1543
     37 F         -31.1870   46.2942   -6.2888 F       1  UNL1       -0.2028
     38 C         -29.8698   44.8754   -4.9071 C.ar    1  UNL1        0.0310
     39 C         -28.8743   44.7144   -3.9418 C.ar    1  UNL1        0.0033
     40 C         -28.2366   45.8332   -3.4013 C.ar    1  UNL1        0.0128
     41 C         -28.5823   47.1203   -3.8309 C.ar    1  UNL1        0.0733
     42 CL        -27.8150   48.4982   -3.0499 Cl      1  UNL1       -0.0809
@<TRIPOS>BOND
     1     1     2    1
     2     2     3   ar
     3     3    33    1
     4    33    35    1
     5    35    36   ar
     6    36    37    1
     7    36    38   ar
     8    38    39   ar
     9    39    40   ar
    10    40    41   ar
    11    41    42    1
    12     3     4   ar
    13     4     5   ar
    14     5     6   ar
    15     6    30    1
    16    30    31    1
    17     6     7   ar
    18     7    16    1
    19    16    17    2
    20    16    18   am
    21    18    20    1
    22    20    21   ar
    23    21    22   ar
    24    22    23   ar
    25    23    24   ar
    26    24    26    1
    27    26    27    1
    28    26    28    1
    29    26    29    1
    30    24    25   ar
    31     7     8   ar
    32     8     9   ar
    33     9    10   ar
    34     9    11    1
    35    11    12    1
    36    12    13    1
    37    12    14    1
    38    12    15    1
    39    10     2   ar
    40    41    35   ar
    41    10     5   ar
    42    25    20   ar
    43    15     8    1
    44    33    34    1
    45    31    32    1
    46    18    19    1
@<TRIPOS>MOLECULE
*****
 42 46 0 0 0
SMALL
GASTEIGER

@<TRIPOS>ATOM
      1 C         -25.0991   51.6225  -12.8537 C.3     1  UNL1        0.1332
      2 N         -25.1571   51.3809  -11.4123 N.ar    1  UNL1       -0.2977
      3 C         -24.1229   51.2602  -10.5366 C.ar    1  UNL1        0.2018
      4 N         -24.5175   51.0583   -9.2524 N.ar    1  UNL1       -0.2137
      5 C         -25.8611   51.0612   -9.3353 C.ar    1  UNL1        0.0983
      6 C         -26.7869   50.9028   -8.2811 C.ar    1  UNL1        0.0334
      7 C         -28.1778   50.9902   -8.6105 C.ar    1  UNL1        0.0872
      8 C         -28.5352   51.1962   -9.9625 C.ar    1  UNL1        0.1398
      9 C         -27.6042   51.3265  -10.9622 C.ar    1  UNL1        0.0327
     10 C         -26.2502   51.2621  -10.6350 C.ar    1  UNL1        0.0787
     11 C         -28.2842   51.5457  -12.2683 C.3     1  UNL1        0.0709
     12 C         -29.7963   51.5607  -11.8682 C.3     1  UNL1        0.1375
     13 C         -30.4335   52.9277  -12.1519 C.3     1  UNL1        0.0439
     14 C         -30.5766   50.4483  -12.5815 C.3     1  UNL1        0.0439
     15 O         -29.8164   51.3188  -10.4599 O.3     1  UNL1       -0.4824
     16 C         -29.2458   50.8622   -7.5972 C.2     1  UNL1        0.2523
     17 O         -30.1367   49.9821   -7.7461 O.2     1  UNL1       -0.2697
     18 N         -29.3192   51.7807   -6.4974 N.am    1  UNL1       -0.2803
     19 H         -28.9151   52.7348   -6.6361 H       1  UNL1        0.1552
     20 C         -30.0066   51.5028   -5.2655 C.ar    1  UNL1        0.0505
     21 C         -30.8966   52.4318   -4.6989 C.ar    1  UNL1        0.0147
     22 C         -31.5840   52.1219   -3.5239 C.ar    1  UNL1        0.0012
     23 C         -31.3946   50.8852   -2.9035 C.ar    1  UNL1        0.0039
     24 C         -30.5040   49.9454   -3.4496 C.ar    1  UNL1        0.0726
     25 C         -29.8368   50.2534   -4.6488 C.ar    1  UNL1        0.0185
     26 C         -30.3435   48.5866   -2.8153 C.3     1  UNL1        0.4186
     27 F         -29.0424   48.4022   -2.3801 F       1  UNL1       -0.1659
     28 F         -31.1865   48.4514   -1.7257 F       1  UNL1       -0.1659
     29 F         -30.6500   47.6112   -3.7455 F       1  UNL1       -0.1659
     30 C         -26.3005   50.6159   -6.8796 C.3     1  UNL1        0.1654
     31 O         -26.5839   51.7051   -6.0459 O.3     1  UNL1       -0.3772
     32 H         -26.1674   51.4983   -5.1692 H       1  UNL1        0.2109
     33 N         -22.7419   51.3876  -10.9075 N.pl3   1  UNL1       -0.2814
     34 H         -22.4021   50.8854  -11.7569 H       1  UNL1        0.1551
     35 C         -21.8978   52.4065  -10.3517 C.ar    1  UNL1        0.0889
     36 C         -21.4394   52.2745   -9.0302 C.ar    1  UNL1        0.1543
     37 F         -21.7785   51.1864   -8.2938 F       1  UNL1       -0.2028
     38 C         -20.6115   53.2514   -8.4697 C.ar    1  UNL1        0.0310
     39 C         -20.2459   54.3727   -9.2166 C.ar    1  UNL1        0.0033
     40 C         -20.7159   54.5267  -10.5227 C.ar    1  UNL1        0.0128
     41 C         -21.5456   53.5546  -11.0947 C.ar    1  UNL1        0.0733
     42 CL        -22.1852   53.8439  -12.7086 Cl      1  UNL1       -0.0809
@<TRIPOS>BOND
     1     1     2    1
     2     2     3   ar
     3     3    33    1
     4    33    35    1
     5    35    36   ar
     6    36    37    1
     7    36    38   ar
     8    38    39   ar
     9    39    40   ar
    10    40    41   ar
    11    41    42    1
    12     3     4   ar
    13     4     5   ar
    14     5     6   ar
    15     6    30    1
    16    30    31    1
    17     6     7   ar
    18     7    16    1
    19    16    17    2
    20    16    18   am
    21    18    20    1
    22    20    21   ar
    23    21    22   ar
    24    22    23   ar
    25    23    24   ar
    26    24    26    1
    27    26    27    1
    28    26    28    1
    29    26    29    1
    30    24    25   ar
    31     7     8   ar
    32     8     9   ar
    33     9    10   ar
    34     9    11    1
    35    11    12    1
    36    12    13    1
    37    12    14    1
    38    12    15    1
    39    10     2   ar
    40    41    35   ar
    41    10     5   ar
    42    25    20   ar
    43    15     8    1
    44    33    34    1
    45    31    32    1
    46    18    19    1
@<TRIPOS>MOLECULE
*****
 42 46 0 0 0
SMALL
GASTEIGER

@<TRIPOS>ATOM
      1 C         -29.6459   50.7914  -12.2911 C.3     1  UNL1        0.1332
      2 N         -29.8923   49.5076  -11.6350 N.ar    1  UNL1       -0.2977
      3 C         -30.6704   48.4778  -12.0653 C.ar    1  UNL1        0.2018
      4 N         -30.6712   47.4088  -11.2270 N.ar    1  UNL1       -0.2137
      5 C         -29.8483   47.7918  -10.2329 C.ar    1  UNL1        0.0983
      6 C         -29.4779   47.0494   -9.0906 C.ar    1  UNL1        0.0334
      7 C         -28.5439   47.6543   -8.1891 C.ar    1  UNL1        0.0872
      8 C         -28.0792   48.9573   -8.4795 C.ar    1  UNL1        0.1398
      9 C         -28.4785   49.6542   -9.5922 C.ar    1  UNL1        0.0327
     10 C         -29.3717   49.0541  -10.4790 C.ar    1  UNL1        0.0787
     11 C         -27.8104   50.9841   -9.6290 C.3     1  UNL1        0.0709
     12 C         -26.9058   50.9479   -8.3534 C.3     1  UNL1        0.1375
     13 C         -25.4182   51.0200   -8.7237 C.3     1  UNL1        0.0439
     14 C         -27.2690   52.0735   -7.3756 C.3     1  UNL1        0.0439
     15 O         -27.1735   49.6866   -7.7369 O.3     1  UNL1       -0.4824
     16 C         -28.0606   46.9751   -6.9689 C.2     1  UNL1        0.2523
     17 O         -26.8544   46.6134   -6.8996 O.2     1  UNL1       -0.2697
     18 N         -28.9695   46.6549   -5.9058 N.am    1  UNL1       -0.2803
     19 H         -29.9749   46.5141   -6.1550 H       1  UNL1        0.1552
     20 C         -28.5619   46.4124   -4.5485 C.ar    1  UNL1        0.0505
     21 C         -29.4302   46.6545   -3.4698 C.ar    1  UNL1        0.0147
     22 C         -29.0261   46.3715   -2.1637 C.ar    1  UNL1        0.0012
     23 C         -27.7568   45.8433   -1.9189 C.ar    1  UNL1        0.0039
     24 C         -26.8711   45.6008   -2.9824 C.ar    1  UNL1        0.0726
     25 C         -27.2956   45.8614   -4.2977 C.ar    1  UNL1        0.0185
     26 C         -25.5233   44.9743   -2.7265 C.3     1  UNL1        0.4186
     27 F         -25.1788   44.1193   -3.7592 F       1  UNL1       -0.1659
     28 F         -24.5424   45.9457   -2.6246 F       1  UNL1       -0.1659
     29 F         -25.5716   44.2578   -1.5454 F       1  UNL1       -0.1659
     30 C         -30.0881   45.6905   -8.8369 C.3     1  UNL1        0.1654
     31 O         -31.3986   45.6586   -9.3302 O.3     1  UNL1       -0.3772
     32 H         -31.7749   44.7810   -9.0595 H       1  UNL1        0.2109
     33 N         -31.3843   48.4811  -13.3108 N.pl3   1  UNL1       -0.2814
     34 H         -32.0623   49.2520  -13.4984 H       1  UNL1        0.1551
     35 C         -30.9831   47.6604  -14.4176 C.ar    1  UNL1        0.0889
     36 C         -30.8602   46.2727  -14.2358 C.ar    1  UNL1        0.1543
     37 F         -31.1342   45.7136  -13.0302 F       1  UNL1       -0.2028
     38 C         -30.4765   45.4529  -15.3010 C.ar    1  UNL1        0.0310
     39 C         -30.1994   46.0109  -16.5502 C.ar    1  UNL1        0.0033
     40 C         -30.2942   47.3919  -16.7360 C.ar    1  UNL1        0.0128
     41 C         -30.6777   48.2230  -15.6764 C.ar    1  UNL1        0.0733
     42 CL        -30.6899   49.9632  -15.9392 Cl      1  UNL1       -0.0809
@<TRIPOS>BOND
     1     1     2    1
     2     2     3   ar
     3     3    33    1
     4    33    35    1
     5    35    36   ar
     6    36    37    1
     7    36    38   ar
     8    38    39   ar
     9    39    40   ar
    10    40    41   ar
    11    41    42    1
    12     3     4   ar
    13     4     5   ar
    14     5     6   ar
    15     6    30    1
    16    30    31    1
    17     6     7   ar
    18     7    16    1
    19    16    17    2
    20    16    18   am
    21    18    20    1
    22    20    21   ar
    23    21    22   ar
    24    22    23   ar
    25    23    24   ar
    26    24    26    1
    27    26    27    1
    28    26    28    1
    29    26    29    1
    30    24    25   ar
    31     7     8   ar
    32     8     9   ar
    33     9    10   ar
    34     9    11    1
    35    11    12    1
    36    12    13    1
    37    12    14    1
    38    12    15    1
    39    10     2   ar
    40    41    35   ar
    41    10     5   ar
    42    25    20   ar
    43    15     8    1
    44    33    34    1
    45    31    32    1
    46    18    19    1
@<TRIPOS>MOLECULE
*****
 42 46 0 0 0
SMALL
GASTEIGER

@<TRIPOS>ATOM
      1 C         -25.2743   50.5497  -11.4477 C.3     1  UNL1        0.1332
      2 N         -25.3713   50.9092  -10.0332 N.ar    1  UNL1       -0.2977
      3 C         -24.7704   51.9428   -9.3841 C.ar    1  UNL1        0.2018
      4 N         -25.0846   52.0135   -8.0643 N.ar    1  UNL1       -0.2137
      5 C         -25.9266   50.9779   -7.8888 C.ar    1  UNL1        0.0983
      6 C         -26.5726   50.5891   -6.6950 C.ar    1  UNL1        0.0334
      7 C         -27.4669   49.4728   -6.7662 C.ar    1  UNL1        0.0872
      8 C         -27.6220   48.8160   -8.0082 C.ar    1  UNL1        0.1398
      9 C         -26.9607   49.2135   -9.1430 C.ar    1  UNL1        0.0327
     10 C         -26.1069   50.3140   -9.0752 C.ar    1  UNL1        0.0787
     11 C         -27.3385   48.3394  -10.2873 C.3     1  UNL1        0.0709
     12 C         -28.3778   47.3635   -9.6435 C.3     1  UNL1        0.1375
     13 C         -29.7653   47.5308  -10.2775 C.3     1  UNL1        0.0439
     14 C         -27.9153   45.9038   -9.7457 C.3     1  UNL1        0.0439
     15 O         -28.4448   47.7388   -8.2662 O.3     1  UNL1       -0.4824
     16 C         -28.2192   48.9790   -5.5941 C.2     1  UNL1        0.2523
     17 O         -29.4796   49.0195   -5.6069 O.2     1  UNL1       -0.2697
     18 N         -27.5260   48.5341   -4.4192 N.am    1  UNL1       -0.2803
     19 H         -26.5795   48.9375   -4.2342 H       1  UNL1        0.1552
     20 C         -28.0986   47.6562   -3.4350 C.ar    1  UNL1        0.0505
     21 C         -27.8830   46.2677   -3.4797 C.ar    1  UNL1        0.0147
     22 C         -28.4150   45.4405   -2.4888 C.ar    1  UNL1        0.0012
     23 C         -29.1633   45.9864   -1.4438 C.ar    1  UNL1        0.0039
     24 C         -29.3964   47.3709   -1.3845 C.ar    1  UNL1        0.0726
     25 C         -28.8334   48.2010   -2.3705 C.ar    1  UNL1        0.0185
     26 C         -30.1526   47.9694   -0.2250 C.3     1  UNL1        0.4186
     27 F         -29.2901   48.6368    0.6274 F       1  UNL1       -0.1659
     28 F         -31.1021   48.8719   -0.6723 F       1  UNL1       -0.1659
     29 F         -30.7859   46.9595    0.4749 F       1  UNL1       -0.1659
     30 C         -26.2828   51.3166   -5.4027 C.3     1  UNL1        0.1654
     31 O         -27.1659   52.3938   -5.2554 O.3     1  UNL1       -0.3772
     32 H         -26.8739   52.8817   -4.4420 H       1  UNL1        0.2109
     33 N         -23.9266   52.9094  -10.0281 N.pl3   1  UNL1       -0.2814
     34 H         -24.2868   53.8798  -10.1621 H       1  UNL1        0.1551
     35 C         -22.5204   52.6881  -10.2097 C.ar    1  UNL1        0.0889
     36 C         -21.7687   52.1408   -9.1564 C.ar    1  UNL1        0.1543
     37 F         -22.3706   51.8100   -7.9861 F       1  UNL1       -0.2028
     38 C         -20.3988   51.9110   -9.3123 C.ar    1  UNL1        0.0310
     39 C         -19.7657   52.2374  -10.5129 C.ar    1  UNL1        0.0033
     40 C         -20.4980   52.8051  -11.5579 C.ar    1  UNL1        0.0128
     41 C         -21.8708   53.0397  -11.4133 C.ar    1  UNL1        0.0733
     42 CL        -22.7259   53.8429  -12.7252 Cl      1  UNL1       -0.0809
@<TRIPOS>BOND
     1     1     2    1
     2     2     3   ar
     3     3    33    1
     4    33    35    1
     5    35    36   ar
     6    36    37    1
     7    36    38   ar
     8    38    39   ar
     9    39    40   ar
    10    40    41   ar
    11    41    42    1
    12     3     4   ar
    13     4     5   ar
    14     5     6   ar
    15     6    30    1
    16    30    31    1
    17     6     7   ar
    18     7    16    1
    19    16    17    2
    20    16    18   am
    21    18    20    1
    22    20    21   ar
    23    21    22   ar
    24    22    23   ar
    25    23    24   ar
    26    24    26    1
    27    26    27    1
    28    26    28    1
    29    26    29    1
    30    24    25   ar
    31     7     8   ar
    32     8     9   ar
    33     9    10   ar
    34     9    11    1
    35    11    12    1
    36    12    13    1
    37    12    14    1
    38    12    15    1
    39    10     2   ar
    40    41    35   ar
    41    10     5   ar
    42    25    20   ar
    43    15     8    1
    44    33    34    1
    45    31    32    1
    46    18    19    1
@<TRIPOS>MOLECULE
*****
 42 46 0 0 0
SMALL
GASTEIGER

@<TRIPOS>ATOM
      1 C         -29.9475   48.3493   -7.1755 C.3     1  UNL1        0.1332
      2 N         -30.0834   49.4812   -8.0919 N.ar    1  UNL1       -0.2977
      3 C         -30.0444   50.8096   -7.8006 C.ar    1  UNL1        0.2018
      4 N         -30.1830   51.6101   -8.8894 N.ar    1  UNL1       -0.2137
      5 C         -30.3068   50.7355   -9.9053 C.ar    1  UNL1        0.0983
      6 C         -30.4672   51.0295  -11.2769 C.ar    1  UNL1        0.0334
      7 C         -30.5300   49.9219  -12.1825 C.ar    1  UNL1        0.0872
      8 C         -30.4598   48.6148  -11.6492 C.ar    1  UNL1        0.1398
      9 C         -30.3227   48.3702  -10.3059 C.ar    1  UNL1        0.0327
     10 C         -30.2405   49.4512   -9.4288 C.ar    1  UNL1        0.0787
     11 C         -30.2648   46.9036  -10.0569 C.3     1  UNL1        0.0709
     12 C         -30.3551   46.3078  -11.5004 C.3     1  UNL1        0.1375
     13 C         -29.0761   45.5435  -11.8681 C.3     1  UNL1        0.0439
     14 C         -31.5838   45.4020  -11.6578 C.3     1  UNL1        0.0439
     15 O         -30.4906   47.4365  -12.3665 O.3     1  UNL1       -0.4824
     16 C         -30.6761   50.0946  -13.6429 C.2     1  UNL1        0.2523
     17 O         -31.1519   51.1722  -14.0932 O.2     1  UNL1       -0.2697
     18 N         -30.3585   49.0192  -14.5381 N.am    1  UNL1       -0.2803
     19 H         -30.4376   48.0440  -14.1700 H       1  UNL1        0.1552
     20 C         -30.0459   49.2006  -15.9298 C.ar    1  UNL1        0.0505
     21 C         -31.0588   49.3368  -16.8951 C.ar    1  UNL1        0.0147
     22 C         -30.7301   49.5539  -18.2345 C.ar    1  UNL1        0.0012
     23 C         -29.3922   49.6400  -18.6254 C.ar    1  UNL1        0.0039
     24 C         -28.3646   49.4994  -17.6774 C.ar    1  UNL1        0.0726
     25 C         -28.7038   49.3094  -16.3257 C.ar    1  UNL1        0.0185
     26 C         -26.9212   49.6522  -18.0869 C.3     1  UNL1        0.4186
     27 F         -26.7618   50.7532  -18.9106 F       1  UNL1       -0.1659
     28 F         -26.1119   49.8224  -16.9768 F       1  UNL1       -0.1659
     29 F         -26.5190   48.5183  -18.7676 F       1  UNL1       -0.1659
     30 C         -30.6024   52.4628  -11.7358 C.3     1  UNL1        0.1654
     31 O         -29.3356   53.0528  -11.8312 O.3     1  UNL1       -0.3772
     32 H         -29.4912   54.0085  -12.0488 H       1  UNL1        0.2109
     33 N         -29.8222   51.3332   -6.4825 N.pl3   1  UNL1       -0.2814
     34 H         -30.6410   51.6780   -5.9349 H       1  UNL1        0.1551
     35 C         -28.5907   51.1174   -5.7778 C.ar    1  UNL1        0.0889
     36 C         -27.4063   51.6890   -6.2721 C.ar    1  UNL1        0.1543
     37 F         -27.4307   52.4506   -7.3949 F       1  UNL1       -0.2028
     38 C         -26.1961   51.4972   -5.5994 C.ar    1  UNL1        0.0310
     39 C         -26.1549   50.7238   -4.4380 C.ar    1  UNL1        0.0033
     40 C         -27.3217   50.1302   -3.9512 C.ar    1  UNL1        0.0128
     41 C         -28.5397   50.3154   -4.6166 C.ar    1  UNL1        0.0733
     42 CL        -29.9601   49.4687   -4.0142 Cl      1  UNL1       -0.0809
@<TRIPOS>BOND
     1     1     2    1
     2     2     3   ar
     3     3    33    1
     4    33    35    1
     5    35    36   ar
     6    36    37    1
     7    36    38   ar
     8    38    39   ar
     9    39    40   ar
    10    40    41   ar
    11    41    42    1
    12     3     4   ar
    13     4     5   ar
    14     5     6   ar
    15     6    30    1
    16    30    31    1
    17     6     7   ar
    18     7    16    1
    19    16    17    2
    20    16    18   am
    21    18    20    1
    22    20    21   ar
    23    21    22   ar
    24    22    23   ar
    25    23    24   ar
    26    24    26    1
    27    26    27    1
    28    26    28    1
    29    26    29    1
    30    24    25   ar
    31     7     8   ar
    32     8     9   ar
    33     9    10   ar
    34     9    11    1
    35    11    12    1
    36    12    13    1
    37    12    14    1
    38    12    15    1
    39    10     2   ar
    40    41    35   ar
    41    10     5   ar
    42    25    20   ar
    43    15     8    1
    44    33    34    1
    45    31    32    1
    46    18    19    1
@<TRIPOS>MOLECULE
*****
 42 46 0 0 0
SMALL
GASTEIGER

@<TRIPOS>ATOM
      1 C         -29.4840   50.9717  -12.9569 C.3     1  UNL1        0.1332
      2 N         -29.8618   49.8074  -12.1563 N.ar    1  UNL1       -0.2977
      3 C         -30.7985   48.8612  -12.4363 C.ar    1  UNL1        0.2018
      4 N         -30.8930   47.8915  -11.4896 N.ar    1  UNL1       -0.2137
      5 C         -29.9652   48.2503  -10.5826 C.ar    1  UNL1        0.0983
      6 C         -29.6291   47.5797   -9.3864 C.ar    1  UNL1        0.0334
      7 C         -28.5670   48.1321   -8.6004 C.ar    1  UNL1        0.0872
      8 C         -27.9479   49.3205   -9.0503 C.ar    1  UNL1        0.1398
      9 C         -28.3168   49.9533  -10.2107 C.ar    1  UNL1        0.0327
     10 C         -29.3370   49.4013  -10.9846 C.ar    1  UNL1        0.0787
     11 C         -27.4771   51.1644  -10.4214 C.3     1  UNL1        0.0709
     12 C         -26.5083   51.1266   -9.1939 C.3     1  UNL1        0.1375
     13 C         -25.0507   50.9494   -9.6405 C.3     1  UNL1        0.0439
     14 C         -26.6529   52.3837   -8.3258 C.3     1  UNL1        0.0439
     15 O         -26.9066   49.9836   -8.4340 O.3     1  UNL1       -0.4824
     16 C         -28.1058   47.5154   -7.3391 C.2     1  UNL1        0.2523
     17 O         -27.6469   46.3409   -7.3571 O.2     1  UNL1       -0.2697
     18 N         -28.2532   48.2108   -6.0927 N.am    1  UNL1       -0.2803
     19 H         -29.0250   48.9119   -6.0183 H       1  UNL1        0.1552
     20 C         -27.4763   47.9230   -4.9176 C.ar    1  UNL1        0.0505
     21 C         -26.9568   48.9528   -4.1140 C.ar    1  UNL1        0.0147
     22 C         -26.2410   48.6480   -2.9547 C.ar    1  UNL1        0.0012
     23 C         -26.0377   47.3173   -2.5830 C.ar    1  UNL1        0.0039
     24 C         -26.5425   46.2730   -3.3762 C.ar    1  UNL1        0.0726
     25 C         -27.2869   46.5882   -4.5271 C.ar    1  UNL1        0.0185
     26 C         -26.3764   44.8374   -2.9452 C.3     1  UNL1        0.4186
     27 F         -27.5415   44.1236   -3.1673 F       1  UNL1       -0.1659
     28 F         -25.3549   44.2279   -3.6531 F       1  UNL1       -0.1659
     29 F         -26.0748   44.7992   -1.5968 F       1  UNL1       -0.1659
     30 C         -30.4021   46.3533   -8.9601 C.3     1  UNL1        0.1654
     31 O         -31.4213   46.7190   -8.0717 O.3     1  UNL1       -0.3772
     32 H         -31.8342   45.8719   -7.7605 H       1  UNL1        0.2109
     33 N         -31.5814   48.8424  -13.6395 N.pl3   1  UNL1       -0.2814
     34 H         -32.4022   49.4828  -13.7140 H       1  UNL1        0.1551
     35 C         -31.1086   48.2199  -14.8430 C.ar    1  UNL1        0.0889
     36 C         -30.9167   49.0038  -15.9931 C.ar    1  UNL1        0.1543
     37 F         -31.1604   50.3382  -15.9601 F       1  UNL1       -0.2028
     38 C         -30.4514   48.4203  -17.1750 C.ar    1  UNL1        0.0310
     39 C         -30.1874   47.0504  -17.2235 C.ar    1  UNL1        0.0033
     40 C         -30.3983   46.2570  -16.0936 C.ar    1  UNL1        0.0128
     41 C         -30.8640   46.8304  -14.9041 C.ar    1  UNL1        0.0733
     42 CL        -31.2019   45.7710  -13.5400 Cl      1  UNL1       -0.0809
@<TRIPOS>BOND
     1     1     2    1
     2     2     3   ar
     3     3    33    1
     4    33    35    1
     5    35    36   ar
     6    36    37    1
     7    36    38   ar
     8    38    39   ar
     9    39    40   ar
    10    40    41   ar
    11    41    42    1
    12     3     4   ar
    13     4     5   ar
    14     5     6   ar
    15     6    30    1
    16    30    31    1
    17     6     7   ar
    18     7    16    1
    19    16    17    2
    20    16    18   am
    21    18    20    1
    22    20    21   ar
    23    21    22   ar
    24    22    23   ar
    25    23    24   ar
    26    24    26    1
    27    26    27    1
    28    26    28    1
    29    26    29    1
    30    24    25   ar
    31     7     8   ar
    32     8     9   ar
    33     9    10   ar
    34     9    11    1
    35    11    12    1
    36    12    13    1
    37    12    14    1
    38    12    15    1
    39    10     2   ar
    40    41    35   ar
    41    10     5   ar
    42    25    20   ar
    43    15     8    1
    44    33    34    1
    45    31    32    1
    46    18    19    1
@<TRIPOS>MOLECULE
*****
 42 46 0 0 0
SMALL
GASTEIGER

@<TRIPOS>ATOM
      1 C         -24.4392   51.5574  -11.9300 C.3     1  UNL1        0.1332
      2 N         -24.4226   51.3505  -10.4822 N.ar    1  UNL1       -0.2977
      3 C         -23.3502   51.3443   -9.6449 C.ar    1  UNL1        0.2018
      4 N         -23.6779   51.1431   -8.3419 N.ar    1  UNL1       -0.2137
      5 C         -25.0186   51.0262   -8.3724 C.ar    1  UNL1        0.0983
      6 C         -25.8874   50.8157   -7.2795 C.ar    1  UNL1        0.0334
      7 C         -27.2918   50.7720   -7.5564 C.ar    1  UNL1        0.0872
      8 C         -27.7154   50.9096   -8.8978 C.ar    1  UNL1        0.1398
      9 C         -26.8370   51.0940   -9.9359 C.ar    1  UNL1        0.0327
     10 C         -25.4715   51.1573   -9.6603 C.ar    1  UNL1        0.0787
     11 C         -27.5813   51.2177  -11.2192 C.3     1  UNL1        0.0709
     12 C         -29.0731   51.1109  -10.7610 C.3     1  UNL1        0.1375
     13 C         -29.8388   52.4088  -11.0516 C.3     1  UNL1        0.0439
     14 C         -29.7775   49.9158  -11.4169 C.3     1  UNL1        0.0439
     15 O         -29.0199   50.9060   -9.3476 O.3     1  UNL1       -0.4824
     16 C         -28.3062   50.5782   -6.4994 C.2     1  UNL1        0.2523
     17 O         -29.2206   51.4347   -6.3560 O.2     1  UNL1       -0.2697
     18 N         -28.2082   49.4720   -5.5908 N.am    1  UNL1       -0.2803
     19 H         -27.2567   49.0804   -5.4063 H       1  UNL1        0.1552
     20 C         -29.3193   48.9472   -4.8442 C.ar    1  UNL1        0.0505
     21 C         -30.5335   48.6202   -5.4726 C.ar    1  UNL1        0.0147
     22 C         -31.5837   48.0728   -4.7332 C.ar    1  UNL1        0.0012
     23 C         -31.4352   47.8434   -3.3638 C.ar    1  UNL1        0.0039
     24 C         -30.2321   48.1700   -2.7152 C.ar    1  UNL1        0.0726
     25 C         -29.1689   48.6944   -3.4718 C.ar    1  UNL1        0.0185
     26 C         -30.0480   47.8674   -1.2492 C.3     1  UNL1        0.4186
     27 F         -29.6311   46.5597   -1.0696 F       1  UNL1       -0.1659
     28 F         -29.0970   48.7044   -0.6915 F       1  UNL1       -0.1659
     29 F         -31.2503   48.0511   -0.5923 F       1  UNL1       -0.1659
     30 C         -25.3262   50.6101   -5.8916 C.3     1  UNL1        0.1654
     31 O         -26.1369   51.2576   -4.9506 O.3     1  UNL1       -0.3772
     32 H         -25.6758   51.1636   -4.0768 H       1  UNL1        0.2109
     33 N         -22.0005   51.5822  -10.0722 N.pl3   1  UNL1       -0.2814
     34 H         -21.6269   51.0381  -10.8807 H       1  UNL1        0.1551
     35 C         -21.2613   52.7356   -9.6448 C.ar    1  UNL1        0.0889
     36 C         -20.5504   52.6870   -8.4340 C.ar    1  UNL1        0.1543
     37 F         -20.5500   51.5551   -7.6857 F       1  UNL1       -0.2028
     38 C         -19.8186   53.7963   -8.0004 C.ar    1  UNL1        0.0310
     39 C         -19.8011   54.9656   -8.7627 C.ar    1  UNL1        0.0033
     40 C         -20.5243   55.0338   -9.9556 C.ar    1  UNL1        0.0128
     41 C         -21.2608   53.9290  -10.3999 C.ar    1  UNL1        0.0733
     42 CL        -22.2288   54.1001  -11.8598 Cl      1  UNL1       -0.0809
@<TRIPOS>BOND
     1     1     2    1
     2     2     3   ar
     3     3    33    1
     4    33    35    1
     5    35    36   ar
     6    36    37    1
     7    36    38   ar
     8    38    39   ar
     9    39    40   ar
    10    40    41   ar
    11    41    42    1
    12     3     4   ar
    13     4     5   ar
    14     5     6   ar
    15     6    30    1
    16    30    31    1
    17     6     7   ar
    18     7    16    1
    19    16    17    2
    20    16    18   am
    21    18    20    1
    22    20    21   ar
    23    21    22   ar
    24    22    23   ar
    25    23    24   ar
    26    24    26    1
    27    26    27    1
    28    26    28    1
    29    26    29    1
    30    24    25   ar
    31     7     8   ar
    32     8     9   ar
    33     9    10   ar
    34     9    11    1
    35    11    12    1
    36    12    13    1
    37    12    14    1
    38    12    15    1
    39    10     2   ar
    40    41    35   ar
    41    10     5   ar
    42    25    20   ar
    43    15     8    1
    44    33    34    1
    45    31    32    1
    46    18    19    1
