@<TRIPOS>MOLECULE
*****
 35 39 0 0 0
SMALL
GASTEIGER

@<TRIPOS>ATOM
      1 C         -25.8091   -5.4538  -12.6971 C.2     1  UNL1        0.2494
      2 O         -26.0688   -4.9454  -11.5722 O.2     1  UNL1       -0.2699
      3 N         -24.7541   -6.4318  -12.8041 N.am    1  UNL1       -0.2680
      4 C         -23.5713   -6.3217  -11.9505 C.3     1  UNL1        0.1412
      5 C         -23.8473   -6.9862  -10.6050 C.3     1  UNL1        0.2268
      6 O         -24.8295   -8.0131  -10.7280 O.3     1  UNL1       -0.4739
      7 C         -24.6935   -9.0944  -11.6037 C.ar    1  UNL1        0.1366
      8 C         -24.6127  -10.3676  -11.0388 C.ar    1  UNL1        0.0367
      9 C         -24.4612  -11.4923  -11.8401 C.ar    1  UNL1        0.0035
     10 C         -24.4045  -11.3695  -13.2316 C.ar    1  UNL1        0.0054
     11 C         -24.5321  -10.0950  -13.8296 C.ar    1  UNL1        0.0306
     12 I         -24.6470   -9.9479  -15.9668 I       1  UNL1       -0.0427
     13 C         -24.6610   -8.9365  -13.0171 C.ar    1  UNL1        0.0371
     14 C         -24.8765   -7.5896  -13.7003 C.3     1  UNL1        0.1240
     15 C         -24.2241  -12.5942  -14.0370 C.ar    1  UNL1        0.0019
     16 C         -25.3374  -13.4289  -14.3188 C.ar    1  UNL1        0.0017
     17 C         -25.1766  -14.6091  -15.0690 C.ar    1  UNL1        0.0206
     18 C         -23.8952  -14.9263  -15.5104 C.ar    1  UNL1        0.0985
     19 N         -23.5134  -15.9951  -16.2323 N.ar    1  UNL1       -0.2241
     20 C         -22.1746  -15.8041  -16.3699 C.ar    1  UNL1        0.1750
     21 N         -21.7243  -14.6765  -15.7689 N.ar    1  UNL1       -0.3349
     22 C         -22.8234  -14.1346  -15.2319 C.ar    1  UNL1        0.0757
     23 C         -22.9376  -12.9602  -14.4932 C.ar    1  UNL1        0.0186
     24 H         -20.7448  -14.3163  -15.7346 H       1  UNL1        0.1675
     25 C         -30.1837   -5.2240  -15.1193 C.3     1  UNL1        0.0324
     26 C         -28.7144   -4.8927  -15.0790 C.ar    1  UNL1       -0.0046
     27 C         -27.9591   -5.2993  -13.9645 C.ar    1  UNL1        0.0015
     28 C         -26.5878   -5.0174  -13.8796 C.ar    1  UNL1        0.0534
     29 C         -25.9765   -4.2906  -14.9095 C.ar    1  UNL1        0.0058
     30 C         -26.7154   -3.8715  -16.0156 C.ar    1  UNL1        0.0182
     31 C         -28.0861   -4.1589  -16.1161 C.ar    1  UNL1        0.1018
     32 S         -28.9909   -3.6049  -17.5398 S.O2    1  UNL1        0.0101
     33 C         -27.9236   -3.0742  -18.8650 C.3     1  UNL1        0.1816
     34 O         -29.8608   -2.4400  -17.1598 O.2     1  UNL1       -0.1686
     35 O         -29.8503   -4.7272  -18.0496 O.2     1  UNL1       -0.1686
@<TRIPOS>BOND
     1    25    26    1
     2    26    27   ar
     3    27    28   ar
     4    28     1    1
     5     1     2    2
     6     1     3   am
     7     3     4    1
     8     4     5    1
     9     5     6    1
    10     6     7    1
    11     7     8   ar
    12     8     9   ar
    13     9    10   ar
    14    10    15    1
    15    15    16   ar
    16    16    17   ar
    17    17    18   ar
    18    18    19   ar
    19    19    20   ar
    20    20    21   ar
    21    21    22   ar
    22    22    23   ar
    23    10    11   ar
    24    11    12    1
    25    11    13   ar
    26    13    14    1
    27    28    29   ar
    28    29    30   ar
    29    30    31   ar
    30    31    32    1
    31    32    33    1
    32    32    34    2
    33    32    35    2
    34    31    26   ar
    35    14     3    1
    36    13     7   ar
    37    23    15   ar
    38    22    18   ar
    39    21    24    1
@<TRIPOS>MOLECULE
*****
 35 39 0 0 0
SMALL
GASTEIGER

@<TRIPOS>ATOM
      1 C         -20.5863   -6.8888   -9.1609 C.2     1  UNL1        0.2494
      2 O         -20.3294   -5.6621   -9.3037 O.2     1  UNL1       -0.2699
      3 N         -21.6844   -7.4710   -9.8930 N.am    1  UNL1       -0.2680
      4 C         -22.8808   -6.6743  -10.1645 C.3     1  UNL1        0.1412
      5 C         -22.6697   -5.8490  -11.4305 C.3     1  UNL1        0.2268
      6 O         -21.7357   -6.4769  -12.3066 O.3     1  UNL1       -0.4739
      7 C         -21.9027   -7.7781  -12.7899 C.ar    1  UNL1        0.1366
      8 C         -22.0587   -7.9326  -14.1677 C.ar    1  UNL1        0.0367
      9 C         -22.2450   -9.1915  -14.7251 C.ar    1  UNL1        0.0035
     10 C         -22.2621  -10.3306  -13.9148 C.ar    1  UNL1        0.0054
     11 C         -22.0586  -10.2042  -12.5216 C.ar    1  UNL1        0.0306
     12 I         -21.8852  -11.9754  -11.3237 I       1  UNL1       -0.0427
     13 C         -21.8934   -8.9186  -11.9396 C.ar    1  UNL1        0.0371
     14 C         -21.5966   -8.8294  -10.4458 C.3     1  UNL1        0.1240
     15 C         -22.4821  -11.6433  -14.5547 C.ar    1  UNL1        0.0019
     16 C         -21.3804  -12.3746  -15.0716 C.ar    1  UNL1        0.0017
     17 C         -21.5776  -13.6181  -15.7011 C.ar    1  UNL1        0.0206
     18 C         -22.8822  -14.0923  -15.8036 C.ar    1  UNL1        0.0985
     19 N         -23.2992  -15.2425  -16.3627 N.ar    1  UNL1       -0.2241
     20 C         -24.6466  -15.1911  -16.1901 C.ar    1  UNL1        0.1750
     21 N         -25.0687  -14.0702  -15.5569 N.ar    1  UNL1       -0.3349
     22 C         -23.9421  -13.3884  -15.3199 C.ar    1  UNL1        0.0757
     23 C         -23.7922  -12.1552  -14.6916 C.ar    1  UNL1        0.0186
     24 H         -26.0479  -13.8031  -15.3118 H       1  UNL1        0.1675
     25 C         -18.4991   -7.4408   -4.6446 C.3     1  UNL1        0.0324
     26 C         -18.7319   -7.9825   -6.0313 C.ar    1  UNL1       -0.0046
     27 C         -19.5143   -7.2333   -6.9281 C.ar    1  UNL1        0.0015
     28 C         -19.7590   -7.6924   -8.2306 C.ar    1  UNL1        0.0534
     29 C         -19.2400   -8.9324   -8.6248 C.ar    1  UNL1        0.0058
     30 C         -18.4714   -9.6913   -7.7424 C.ar    1  UNL1        0.0182
     31 C         -18.2104   -9.2353   -6.4404 C.ar    1  UNL1        0.1018
     32 S         -17.2294  -10.2332   -5.3475 S.O2    1  UNL1        0.0101
     33 C         -15.9841   -9.2885   -4.4910 C.3     1  UNL1        0.1816
     34 O         -16.5286  -11.3025   -6.1372 O.2     1  UNL1       -0.1686
     35 O         -18.1229  -10.8717   -4.3218 O.2     1  UNL1       -0.1686
@<TRIPOS>BOND
     1    25    26    1
     2    26    27   ar
     3    27    28   ar
     4    28     1    1
     5     1     2    2
     6     1     3   am
     7     3     4    1
     8     4     5    1
     9     5     6    1
    10     6     7    1
    11     7     8   ar
    12     8     9   ar
    13     9    10   ar
    14    10    15    1
    15    15    16   ar
    16    16    17   ar
    17    17    18   ar
    18    18    19   ar
    19    19    20   ar
    20    20    21   ar
    21    21    22   ar
    22    22    23   ar
    23    10    11   ar
    24    11    12    1
    25    11    13   ar
    26    13    14    1
    27    28    29   ar
    28    29    30   ar
    29    30    31   ar
    30    31    32    1
    31    32    33    1
    32    32    34    2
    33    32    35    2
    34    31    26   ar
    35    14     3    1
    36    13     7   ar
    37    23    15   ar
    38    22    18   ar
    39    21    24    1
@<TRIPOS>MOLECULE
*****
 35 39 0 0 0
SMALL
GASTEIGER

@<TRIPOS>ATOM
      1 C         -25.1694   -5.5823  -12.4057 C.2     1  UNL1        0.2494
      2 O         -25.2436   -5.0696  -11.2556 O.2     1  UNL1       -0.2699
      3 N         -24.0443   -6.4235  -12.7334 N.am    1  UNL1       -0.2680
      4 C         -22.7295   -6.1346  -12.1611 C.3     1  UNL1        0.1412
      5 C         -22.6186   -6.7786  -10.7824 C.3     1  UNL1        0.2268
      6 O         -23.4615   -7.9244  -10.6783 O.3     1  UNL1       -0.4739
      7 C         -23.3784   -9.0116  -11.5534 C.ar    1  UNL1        0.1366
      8 C         -23.0118  -10.2429  -11.0094 C.ar    1  UNL1        0.0367
      9 C         -22.8920  -11.3684  -11.8151 C.ar    1  UNL1        0.0035
     10 C         -23.1544  -11.2906  -13.1860 C.ar    1  UNL1        0.0054
     11 C         -23.5735  -10.0650  -13.7521 C.ar    1  UNL1        0.0306
     12 I         -24.1666  -10.0120  -15.8131 I       1  UNL1       -0.0427
     13 C         -23.6735   -8.9028  -12.9408 C.ar    1  UNL1        0.0371
     14 C         -24.2056   -7.6196  -13.5713 C.3     1  UNL1        0.1240
     15 C         -22.9944  -12.5117  -14.0012 C.ar    1  UNL1        0.0019
     16 C         -21.6983  -13.0362  -14.2472 C.ar    1  UNL1        0.0017
     17 C         -21.5296  -14.1884  -15.0381 C.ar    1  UNL1        0.0206
     18 C         -22.6709  -14.7805  -15.5713 C.ar    1  UNL1        0.0985
     19 N         -22.7442  -15.8748  -16.3501 N.ar    1  UNL1       -0.2241
     20 C         -24.0790  -15.9949  -16.5775 C.ar    1  UNL1        0.1750
     21 N         -24.8188  -15.0308  -15.9786 N.ar    1  UNL1       -0.3349
     22 C         -23.9142  -14.2734  -15.3476 C.ar    1  UNL1        0.0757
     23 C         -24.1259  -13.1364  -14.5727 C.ar    1  UNL1        0.0186
     24 H         -25.8556  -14.9096  -16.0052 H       1  UNL1        0.1675
     25 C         -26.6619   -3.1982  -16.5465 C.3     1  UNL1        0.0324
     26 C         -26.9849   -4.1370  -15.4130 C.ar    1  UNL1       -0.0046
     27 C         -25.9852   -4.4251  -14.4668 C.ar    1  UNL1        0.0015
     28 C         -26.2358   -5.2908  -13.3922 C.ar    1  UNL1        0.0534
     29 C         -27.4933   -5.8991  -13.2861 C.ar    1  UNL1        0.0058
     30 C         -28.4909   -5.6311  -14.2232 C.ar    1  UNL1        0.0182
     31 C         -28.2542   -4.7567  -15.2960 C.ar    1  UNL1        0.1018
     32 S         -29.5504   -4.4445  -16.4685 S.O2    1  UNL1        0.0101
     33 C         -30.4041   -2.9120  -16.1531 C.3     1  UNL1        0.1816
     34 O         -30.5632   -5.5528  -16.4043 O.2     1  UNL1       -0.1686
     35 O         -28.9647   -4.3801  -17.8509 O.2     1  UNL1       -0.1686
@<TRIPOS>BOND
     1    25    26    1
     2    26    27   ar
     3    27    28   ar
     4    28     1    1
     5     1     2    2
     6     1     3   am
     7     3     4    1
     8     4     5    1
     9     5     6    1
    10     6     7    1
    11     7     8   ar
    12     8     9   ar
    13     9    10   ar
    14    10    15    1
    15    15    16   ar
    16    16    17   ar
    17    17    18   ar
    18    18    19   ar
    19    19    20   ar
    20    20    21   ar
    21    21    22   ar
    22    22    23   ar
    23    10    11   ar
    24    11    12    1
    25    11    13   ar
    26    13    14    1
    27    28    29   ar
    28    29    30   ar
    29    30    31   ar
    30    31    32    1
    31    32    33    1
    32    32    34    2
    33    32    35    2
    34    31    26   ar
    35    14     3    1
    36    13     7   ar
    37    23    15   ar
    38    22    18   ar
    39    21    24    1
@<TRIPOS>MOLECULE
*****
 35 39 0 0 0
SMALL
GASTEIGER

@<TRIPOS>ATOM
      1 C         -22.6751  -10.3533  -11.3697 C.2     1  UNL1        0.2494
      2 O         -21.6018  -10.1635  -10.7347 O.2     1  UNL1       -0.2699
      3 N         -23.8066   -9.4949  -11.1176 N.am    1  UNL1       -0.2680
      4 C         -24.0353   -8.9697   -9.7716 C.3     1  UNL1        0.1412
      5 C         -23.2159   -7.6981   -9.5723 C.3     1  UNL1        0.2268
      6 O         -22.9756   -7.0386  -10.8140 O.3     1  UNL1       -0.4739
      7 C         -24.0032   -6.6332  -11.6710 C.ar    1  UNL1        0.1366
      8 C         -24.1386   -5.2641  -11.9030 C.ar    1  UNL1        0.0367
      9 C         -25.1443   -4.7796  -12.7300 C.ar    1  UNL1        0.0035
     10 C         -26.0300   -5.6590  -13.3599 C.ar    1  UNL1        0.0054
     11 C         -25.8832   -7.0531  -13.1781 C.ar    1  UNL1        0.0306
     12 I         -27.1192   -8.3926  -14.3096 I       1  UNL1       -0.0427
     13 C         -24.8742   -7.5564  -12.3136 C.ar    1  UNL1        0.0371
     14 C         -24.6964   -9.0678  -12.2060 C.3     1  UNL1        0.1240
     15 C         -27.0928   -5.0917  -14.2142 C.ar    1  UNL1        0.0019
     16 C         -28.4569   -5.3405  -13.9096 C.ar    1  UNL1        0.0017
     17 C         -29.4797   -4.8221  -14.7260 C.ar    1  UNL1        0.0206
     18 C         -29.1041   -4.0722  -15.8369 C.ar    1  UNL1        0.0985
     19 N         -29.9051   -3.4893  -16.7467 N.ar    1  UNL1       -0.2241
     20 C         -29.0207   -2.9051  -17.5978 C.ar    1  UNL1        0.1750
     21 N         -27.7257   -3.1037  -17.2526 N.ar    1  UNL1       -0.3349
     22 C         -27.7969   -3.8417  -16.1389 C.ar    1  UNL1        0.0757
     23 C         -26.7546   -4.3360  -15.3595 C.ar    1  UNL1        0.0186
     24 H         -26.8715   -2.7590  -17.7444 H       1  UNL1        0.1675
     25 C         -25.4016  -13.7732  -13.8043 C.3     1  UNL1        0.0324
     26 C         -24.0579  -13.1420  -13.5468 C.ar    1  UNL1       -0.0046
     27 C         -23.9723  -12.0853  -12.6228 C.ar    1  UNL1        0.0015
     28 C         -22.7449  -11.4655  -12.3461 C.ar    1  UNL1        0.0534
     29 C         -21.5979  -11.8897  -13.0295 C.ar    1  UNL1        0.0058
     30 C         -21.6698  -12.9293  -13.9565 C.ar    1  UNL1        0.0182
     31 C         -22.8913  -13.5645  -14.2320 C.ar    1  UNL1        0.1018
     32 S         -22.9399  -14.8822  -15.4210 S.O2    1  UNL1        0.0101
     33 C         -24.5067  -14.9853  -16.2646 C.3     1  UNL1        0.1816
     34 O         -22.7084  -16.1943  -14.7261 O.2     1  UNL1       -0.1686
     35 O         -21.8662  -14.6631  -16.4493 O.2     1  UNL1       -0.1686
@<TRIPOS>BOND
     1    25    26    1
     2    26    27   ar
     3    27    28   ar
     4    28     1    1
     5     1     2    2
     6     1     3   am
     7     3     4    1
     8     4     5    1
     9     5     6    1
    10     6     7    1
    11     7     8   ar
    12     8     9   ar
    13     9    10   ar
    14    10    15    1
    15    15    16   ar
    16    16    17   ar
    17    17    18   ar
    18    18    19   ar
    19    19    20   ar
    20    20    21   ar
    21    21    22   ar
    22    22    23   ar
    23    10    11   ar
    24    11    12    1
    25    11    13   ar
    26    13    14    1
    27    28    29   ar
    28    29    30   ar
    29    30    31   ar
    30    31    32    1
    31    32    33    1
    32    32    34    2
    33    32    35    2
    34    31    26   ar
    35    14     3    1
    36    13     7   ar
    37    23    15   ar
    38    22    18   ar
    39    21    24    1
@<TRIPOS>MOLECULE
*****
 35 39 0 0 0
SMALL
GASTEIGER

@<TRIPOS>ATOM
      1 C         -23.1360  -10.0251  -13.5404 C.2     1  UNL1        0.2494
      2 O         -22.5958  -10.4952  -14.5789 O.2     1  UNL1       -0.2699
      3 N         -22.7986  -10.5833  -12.2537 N.am    1  UNL1       -0.2680
      4 C         -22.5016  -12.0108  -12.1357 C.3     1  UNL1        0.1412
      5 C         -21.0312  -12.2562  -12.4609 C.3     1  UNL1        0.2268
      6 O         -20.2409  -11.1021  -12.1820 O.3     1  UNL1       -0.4739
      7 C         -20.1993  -10.4951  -10.9233 C.ar    1  UNL1        0.1366
      8 C         -18.9741  -10.4915  -10.2560 C.ar    1  UNL1        0.0367
      9 C         -18.8535   -9.9217   -8.9947 C.ar    1  UNL1        0.0035
     10 C         -19.9567   -9.3247   -8.3776 C.ar    1  UNL1        0.0054
     11 C         -21.1970   -9.2736   -9.0538 C.ar    1  UNL1        0.0306
     12 I         -22.8214   -8.1776   -8.1807 I       1  UNL1       -0.0427
     13 C         -21.3363   -9.8768  -10.3327 C.ar    1  UNL1        0.0371
     14 C         -22.6671   -9.7310  -11.0642 C.3     1  UNL1        0.1240
     15 C         -19.7798   -8.7497   -7.0287 C.ar    1  UNL1        0.0019
     16 C         -18.7178   -7.8417   -6.7778 C.ar    1  UNL1        0.0017
     17 C         -18.5258   -7.3008   -5.4924 C.ar    1  UNL1        0.0206
     18 C         -19.4034   -7.6949   -4.4864 C.ar    1  UNL1        0.0985
     19 N         -19.4052   -7.3106   -3.1974 N.ar    1  UNL1       -0.2241
     20 C         -20.4577   -7.9970   -2.6789 C.ar    1  UNL1        0.1750
     21 N         -21.0937   -8.7779   -3.5852 N.ar    1  UNL1       -0.3349
     22 C         -20.4155   -8.5747   -4.7205 C.ar    1  UNL1        0.0757
     23 C         -20.6403   -9.1337   -5.9755 C.ar    1  UNL1        0.0186
     24 H         -21.9218   -9.3948   -3.4303 H       1  UNL1        0.1675
     25 C         -27.5438   -8.0080  -12.2915 C.3     1  UNL1        0.0324
     26 C         -26.2627   -7.9179  -13.0795 C.ar    1  UNL1       -0.0046
     27 C         -25.3218   -8.9566  -12.9630 C.ar    1  UNL1        0.0015
     28 C         -24.1150   -8.9213  -13.6767 C.ar    1  UNL1        0.0534
     29 C         -23.8363   -7.8152  -14.4899 C.ar    1  UNL1        0.0058
     30 C         -24.7553   -6.7726  -14.6067 C.ar    1  UNL1        0.0182
     31 C         -25.9716   -6.8038  -13.9059 C.ar    1  UNL1        0.1018
     32 S         -27.1130   -5.4550  -14.0803 S.O2    1  UNL1        0.0101
     33 C         -26.6356   -4.3164  -15.3659 C.3     1  UNL1        0.1816
     34 O         -27.1816   -4.6855  -12.7914 O.2     1  UNL1       -0.1686
     35 O         -28.4744   -5.9965  -14.4141 O.2     1  UNL1       -0.1686
@<TRIPOS>BOND
     1    25    26    1
     2    26    27   ar
     3    27    28   ar
     4    28     1    1
     5     1     2    2
     6     1     3   am
     7     3     4    1
     8     4     5    1
     9     5     6    1
    10     6     7    1
    11     7     8   ar
    12     8     9   ar
    13     9    10   ar
    14    10    15    1
    15    15    16   ar
    16    16    17   ar
    17    17    18   ar
    18    18    19   ar
    19    19    20   ar
    20    20    21   ar
    21    21    22   ar
    22    22    23   ar
    23    10    11   ar
    24    11    12    1
    25    11    13   ar
    26    13    14    1
    27    28    29   ar
    28    29    30   ar
    29    30    31   ar
    30    31    32    1
    31    32    33    1
    32    32    34    2
    33    32    35    2
    34    31    26   ar
    35    14     3    1
    36    13     7   ar
    37    23    15   ar
    38    22    18   ar
    39    21    24    1
@<TRIPOS>MOLECULE
*****
 35 39 0 0 0
SMALL
GASTEIGER

@<TRIPOS>ATOM
      1 C         -23.7072   -9.0451  -13.4136 C.2     1  UNL1        0.2494
      2 O         -24.7946   -8.4211  -13.5528 O.2     1  UNL1       -0.2699
      3 N         -22.5820   -8.3775  -12.8062 N.am    1  UNL1       -0.2680
      4 C         -22.3839   -6.9443  -13.0219 C.3     1  UNL1        0.1412
      5 C         -23.2080   -6.1555  -12.0086 C.3     1  UNL1        0.2268
      6 O         -23.4206   -6.9095  -10.8167 O.3     1  UNL1       -0.4739
      7 C         -22.3742   -7.4312  -10.0502 C.ar    1  UNL1        0.1366
      8 C         -22.2342   -6.9494   -8.7484 C.ar    1  UNL1        0.0367
      9 C         -21.2103   -7.4061   -7.9279 C.ar    1  UNL1        0.0035
     10 C         -20.3103   -8.3721   -8.3875 C.ar    1  UNL1        0.0054
     11 C         -20.4606   -8.9102   -9.6860 C.ar    1  UNL1        0.0306
     12 I         -19.1989  -10.5333  -10.2993 I       1  UNL1       -0.0427
     13 C         -21.4886   -8.4303  -10.5414 C.ar    1  UNL1        0.0371
     14 C         -21.6681   -9.0918  -11.9043 C.3     1  UNL1        0.1240
     15 C         -19.2288   -8.8103   -7.4822 C.ar    1  UNL1        0.0019
     16 C         -18.7032  -10.1248   -7.5883 C.ar    1  UNL1        0.0017
     17 C         -17.6856  -10.5622   -6.7196 C.ar    1  UNL1        0.0206
     18 C         -17.2272   -9.6674   -5.7570 C.ar    1  UNL1        0.0985
     19 N         -16.2735   -9.8710   -4.8306 N.ar    1  UNL1       -0.2241
     20 C         -16.2393   -8.6854   -4.1665 C.ar    1  UNL1        0.1750
     21 N         -17.1226   -7.7740   -4.6407 N.ar    1  UNL1       -0.3349
     22 C         -17.7371   -8.4103   -5.6444 C.ar    1  UNL1        0.0757
     23 C         -18.7440   -7.9378   -6.4818 C.ar    1  UNL1        0.0186
     24 H         -17.2839   -6.8004   -4.2994 H       1  UNL1        0.1675
     25 C         -25.5605  -13.6944  -13.4974 C.3     1  UNL1        0.0324
     26 C         -24.5038  -12.7203  -13.9500 C.ar    1  UNL1       -0.0046
     27 C         -24.5749  -11.3886  -13.5035 C.ar    1  UNL1        0.0015
     28 C         -23.6150  -10.4436  -13.8942 C.ar    1  UNL1        0.0534
     29 C         -22.5922  -10.8328  -14.7689 C.ar    1  UNL1        0.0058
     30 C         -22.5154  -12.1474  -15.2283 C.ar    1  UNL1        0.0182
     31 C         -23.4643  -13.1041  -14.8338 C.ar    1  UNL1        0.1018
     32 S         -23.3319  -14.7664  -15.4436 S.O2    1  UNL1        0.0101
     33 C         -24.7465  -15.2550  -16.4116 C.3     1  UNL1        0.1816
     34 O         -23.2198  -15.7183  -14.2862 O.2     1  UNL1       -0.1686
     35 O         -22.1083  -14.8821  -16.3082 O.2     1  UNL1       -0.1686
@<TRIPOS>BOND
     1    25    26    1
     2    26    27   ar
     3    27    28   ar
     4    28     1    1
     5     1     2    2
     6     1     3   am
     7     3     4    1
     8     4     5    1
     9     5     6    1
    10     6     7    1
    11     7     8   ar
    12     8     9   ar
    13     9    10   ar
    14    10    15    1
    15    15    16   ar
    16    16    17   ar
    17    17    18   ar
    18    18    19   ar
    19    19    20   ar
    20    20    21   ar
    21    21    22   ar
    22    22    23   ar
    23    10    11   ar
    24    11    12    1
    25    11    13   ar
    26    13    14    1
    27    28    29   ar
    28    29    30   ar
    29    30    31   ar
    30    31    32    1
    31    32    33    1
    32    32    34    2
    33    32    35    2
    34    31    26   ar
    35    14     3    1
    36    13     7   ar
    37    23    15   ar
    38    22    18   ar
    39    21    24    1
@<TRIPOS>MOLECULE
*****
 35 39 0 0 0
SMALL
GASTEIGER

@<TRIPOS>ATOM
      1 C         -20.3863   -8.4387   -8.4261 C.2     1  UNL1        0.2494
      2 O         -20.3022   -7.2754   -7.9455 O.2     1  UNL1       -0.2699
      3 N         -21.6080   -8.8492   -9.0741 N.am    1  UNL1       -0.2680
      4 C         -22.8931   -8.3480   -8.5872 C.3     1  UNL1        0.1412
      5 C         -23.1876   -6.9921   -9.2221 C.3     1  UNL1        0.2268
      6 O         -22.5437   -6.8640  -10.4883 O.3     1  UNL1       -0.4739
      7 C         -22.7438   -7.7657  -11.5379 C.ar    1  UNL1        0.1366
      8 C         -23.3323   -7.2705  -12.7020 C.ar    1  UNL1        0.0367
      9 C         -23.5789   -8.1059  -13.7843 C.ar    1  UNL1        0.0035
     10 C         -23.2248   -9.4573  -13.7326 C.ar    1  UNL1        0.0054
     11 C         -22.5841   -9.9716  -12.5822 C.ar    1  UNL1        0.0306
     12 I         -21.8662  -11.9931  -12.5991 I       1  UNL1       -0.0427
     13 C         -22.3516   -9.1310  -11.4606 C.ar    1  UNL1        0.0371
     14 C         -21.5867   -9.7018  -10.2704 C.3     1  UNL1        0.1240
     15 C         -23.5255  -10.3065  -14.9029 C.ar    1  UNL1        0.0019
     16 C         -24.6517  -11.1706  -14.8824 C.ar    1  UNL1        0.0017
     17 C         -24.9393  -11.9995  -15.9832 C.ar    1  UNL1        0.0206
     18 C         -24.0795  -11.9455  -17.0764 C.ar    1  UNL1        0.0985
     19 N         -24.1595  -12.6444  -18.2229 N.ar    1  UNL1       -0.2241
     20 C         -23.0774  -12.2070  -18.9196 C.ar    1  UNL1        0.1750
     21 N         -22.3449  -11.2805  -18.2558 N.ar    1  UNL1       -0.3349
     22 C         -22.9919  -11.1271  -17.0948 C.ar    1  UNL1        0.0757
     23 C         -22.6705  -10.2923  -16.0281 C.ar    1  UNL1        0.0186
     24 H         -21.4764  -10.7991  -18.5787 H       1  UNL1        0.1675
     25 C         -17.0305  -10.7392   -5.5099 C.3     1  UNL1        0.0324
     26 C         -17.5824  -10.4896   -6.8897 C.ar    1  UNL1       -0.0046
     27 C         -18.6800   -9.6222   -7.0330 C.ar    1  UNL1        0.0015
     28 C         -19.2294   -9.3552   -8.2955 C.ar    1  UNL1        0.0534
     29 C         -18.6915   -9.9921   -9.4213 C.ar    1  UNL1        0.0058
     30 C         -17.6098  -10.8631   -9.2929 C.ar    1  UNL1        0.0182
     31 C         -17.0447  -11.1280   -8.0352 C.ar    1  UNL1        0.1018
     32 S         -15.6700  -12.2452   -7.9150 S.O2    1  UNL1        0.0101
     33 C         -14.6753  -12.2679   -9.3938 C.3     1  UNL1        0.1816
     34 O         -16.1762  -13.6411   -7.6838 O.2     1  UNL1       -0.1686
     35 O         -14.7940  -11.8328   -6.7658 O.2     1  UNL1       -0.1686
@<TRIPOS>BOND
     1    25    26    1
     2    26    27   ar
     3    27    28   ar
     4    28     1    1
     5     1     2    2
     6     1     3   am
     7     3     4    1
     8     4     5    1
     9     5     6    1
    10     6     7    1
    11     7     8   ar
    12     8     9   ar
    13     9    10   ar
    14    10    15    1
    15    15    16   ar
    16    16    17   ar
    17    17    18   ar
    18    18    19   ar
    19    19    20   ar
    20    20    21   ar
    21    21    22   ar
    22    22    23   ar
    23    10    11   ar
    24    11    12    1
    25    11    13   ar
    26    13    14    1
    27    28    29   ar
    28    29    30   ar
    29    30    31   ar
    30    31    32    1
    31    32    33    1
    32    32    34    2
    33    32    35    2
    34    31    26   ar
    35    14     3    1
    36    13     7   ar
    37    23    15   ar
    38    22    18   ar
    39    21    24    1
@<TRIPOS>MOLECULE
*****
 35 39 0 0 0
SMALL
GASTEIGER

@<TRIPOS>ATOM
      1 C         -17.5835  -11.1744   -7.2428 C.2     1  UNL1        0.2494
      2 O         -17.2046  -12.3409   -6.9480 O.2     1  UNL1       -0.2699
      3 N         -17.7147  -10.8034   -8.6306 N.am    1  UNL1       -0.2680
      4 C         -16.7977  -11.3641   -9.6229 C.3     1  UNL1        0.1412
      5 C         -17.3170  -12.7203  -10.0910 C.3     1  UNL1        0.2268
      6 O         -18.7353  -12.8018   -9.9651 O.3     1  UNL1       -0.4739
      7 C         -19.6061  -11.8921  -10.5726 C.ar    1  UNL1        0.1366
      8 C         -20.4799  -12.3920  -11.5386 C.ar    1  UNL1        0.0367
      9 C         -21.3657  -11.5500  -12.1993 C.ar    1  UNL1        0.0035
     10 C         -21.4094  -10.1863  -11.8945 C.ar    1  UNL1        0.0054
     11 C         -20.5674   -9.6651  -10.8858 C.ar    1  UNL1        0.0306
     12 I         -20.7906   -7.6161  -10.2908 I       1  UNL1       -0.0427
     13 C         -19.6400  -10.5135  -10.2233 C.ar    1  UNL1        0.0371
     14 C         -18.8058   -9.9314   -9.0863 C.3     1  UNL1        0.1240
     15 C         -22.3561   -9.3313  -12.6388 C.ar    1  UNL1        0.0019
     16 C         -21.9228   -8.6329  -13.7964 C.ar    1  UNL1        0.0017
     17 C         -22.8092   -7.7995  -14.5044 C.ar    1  UNL1        0.0206
     18 C         -24.1101   -7.6814  -14.0240 C.ar    1  UNL1        0.0985
     19 N         -25.1136   -6.9457  -14.5350 N.ar    1  UNL1       -0.2241
     20 C         -26.1384   -7.1953  -13.6775 C.ar    1  UNL1        0.1750
     21 N         -25.8091   -8.0428  -12.6730 N.ar    1  UNL1       -0.3349
     22 C         -24.5259   -8.3400  -12.9075 C.ar    1  UNL1        0.0757
     23 C         -23.6825   -9.1729  -12.1774 C.ar    1  UNL1        0.0186
     24 H         -26.4186   -8.3835  -11.8966 H       1  UNL1        0.1675
     25 C         -15.9699   -8.5443   -3.3011 C.3     1  UNL1        0.0324
     26 C         -17.1002   -8.9198   -4.2241 C.ar    1  UNL1       -0.0046
     27 C         -16.8492   -9.8305   -5.2660 C.ar    1  UNL1        0.0015
     28 C         -17.8676  -10.2140   -6.1509 C.ar    1  UNL1        0.0534
     29 C         -19.1425   -9.6513   -6.0077 C.ar    1  UNL1        0.0058
     30 C         -19.4031   -8.7388   -4.9856 C.ar    1  UNL1        0.0182
     31 C         -18.3939   -8.3573   -4.0871 C.ar    1  UNL1        0.1018
     32 S         -18.7666   -7.1907   -2.8015 S.O2    1  UNL1        0.0101
     33 C         -20.4451   -7.3285   -2.2180 C.3     1  UNL1        0.1816
     34 O         -18.5772   -5.7934   -3.3211 O.2     1  UNL1       -0.1686
     35 O         -17.8443   -7.4223   -1.6381 O.2     1  UNL1       -0.1686
@<TRIPOS>BOND
     1    25    26    1
     2    26    27   ar
     3    27    28   ar
     4    28     1    1
     5     1     2    2
     6     1     3   am
     7     3     4    1
     8     4     5    1
     9     5     6    1
    10     6     7    1
    11     7     8   ar
    12     8     9   ar
    13     9    10   ar
    14    10    15    1
    15    15    16   ar
    16    16    17   ar
    17    17    18   ar
    18    18    19   ar
    19    19    20   ar
    20    20    21   ar
    21    21    22   ar
    22    22    23   ar
    23    10    11   ar
    24    11    12    1
    25    11    13   ar
    26    13    14    1
    27    28    29   ar
    28    29    30   ar
    29    30    31   ar
    30    31    32    1
    31    32    33    1
    32    32    34    2
    33    32    35    2
    34    31    26   ar
    35    14     3    1
    36    13     7   ar
    37    23    15   ar
    38    22    18   ar
    39    21    24    1
@<TRIPOS>MOLECULE
*****
 35 39 0 0 0
SMALL
GASTEIGER

@<TRIPOS>ATOM
      1 C         -22.7026  -10.3695  -11.2919 C.2     1  UNL1        0.2494
      2 O         -21.6549  -10.2124  -10.6073 O.2     1  UNL1       -0.2699
      3 N         -23.8279   -9.4939  -11.0731 N.am    1  UNL1       -0.2680
      4 C         -24.1057   -8.9890   -9.7286 C.3     1  UNL1        0.1412
      5 C         -23.2722   -7.7376   -9.4694 C.3     1  UNL1        0.2268
      6 O         -22.9651   -7.0603  -10.6865 O.3     1  UNL1       -0.4739
      7 C         -23.9462   -6.6192  -11.5796 C.ar    1  UNL1        0.1366
      8 C         -24.0456   -5.2437  -11.7910 C.ar    1  UNL1        0.0367
      9 C         -25.0047   -4.7245  -12.6517 C.ar    1  UNL1        0.0035
     10 C         -25.8781   -5.5747  -13.3363 C.ar    1  UNL1        0.0054
     11 C         -25.7656   -6.9745  -13.1750 C.ar    1  UNL1        0.0306
     12 I         -26.9756   -8.2685  -14.3849 I       1  UNL1       -0.0427
     13 C         -24.8053   -7.5132  -12.2771 C.ar    1  UNL1        0.0371
     14 C         -24.6607   -9.0295  -12.1909 C.3     1  UNL1        0.1240
     15 C         -26.8915   -4.9711  -14.2252 C.ar    1  UNL1        0.0019
     16 C         -26.4860   -4.1428  -15.3045 C.ar    1  UNL1        0.0017
     17 C         -27.4417   -3.5457  -16.1480 C.ar    1  UNL1        0.0206
     18 C         -28.7854   -3.7894  -15.8787 C.ar    1  UNL1        0.0985
     19 N         -29.8570   -3.3241  -16.5454 N.ar    1  UNL1       -0.2241
     20 C         -30.8982   -3.8637  -15.8580 C.ar    1  UNL1        0.1750
     21 N         -30.5147   -4.6308  -14.8092 N.ar    1  UNL1       -0.3349
     22 C         -29.1783   -4.5733  -14.8374 C.ar    1  UNL1        0.0757
     23 C         -28.2670   -5.1819  -13.9788 C.ar    1  UNL1        0.0186
     24 H         -31.1240   -5.1467  -14.1362 H       1  UNL1        0.1675
     25 C         -20.2819  -13.6703  -14.1733 C.3     1  UNL1        0.0324
     26 C         -21.5882  -13.0825  -13.7058 C.ar    1  UNL1       -0.0046
     27 C         -21.5624  -12.0443  -12.7575 C.ar    1  UNL1        0.0015
     28 C         -22.7503  -11.4620  -12.2917 C.ar    1  UNL1        0.0534
     29 C         -23.9775  -11.9505  -12.7586 C.ar    1  UNL1        0.0058
     30 C         -24.0186  -12.9869  -13.6910 C.ar    1  UNL1        0.0182
     31 C         -22.8350  -13.5686  -14.1728 C.ar    1  UNL1        0.1018
     32 S         -22.9313  -14.8876  -15.3575 S.O2    1  UNL1        0.0101
     33 C         -24.5590  -15.0551  -16.0643 C.3     1  UNL1        0.1816
     34 O         -22.5878  -16.1889  -14.6891 O.2     1  UNL1       -0.1686
     35 O         -21.9595  -14.6251  -16.4731 O.2     1  UNL1       -0.1686
@<TRIPOS>BOND
     1    25    26    1
     2    26    27   ar
     3    27    28   ar
     4    28     1    1
     5     1     2    2
     6     1     3   am
     7     3     4    1
     8     4     5    1
     9     5     6    1
    10     6     7    1
    11     7     8   ar
    12     8     9   ar
    13     9    10   ar
    14    10    15    1
    15    15    16   ar
    16    16    17   ar
    17    17    18   ar
    18    18    19   ar
    19    19    20   ar
    20    20    21   ar
    21    21    22   ar
    22    22    23   ar
    23    10    11   ar
    24    11    12    1
    25    11    13   ar
    26    13    14    1
    27    28    29   ar
    28    29    30   ar
    29    30    31   ar
    30    31    32    1
    31    32    33    1
    32    32    34    2
    33    32    35    2
    34    31    26   ar
    35    14     3    1
    36    13     7   ar
    37    23    15   ar
    38    22    18   ar
    39    21    24    1
