@<TRIPOS>MOLECULE
*****
 46 51 0 0 0
SMALL
GASTEIGER

@<TRIPOS>ATOM
      1 C          13.2175   83.2884   24.4875 C.ar    1  UNL1        0.1318
      2 C          13.2882   82.9988   25.8589 C.ar    1  UNL1        0.0356
      3 C          12.5039   81.9721   26.3862 C.ar    1  UNL1        0.0191
      4 C          11.6591   81.2301   25.5526 C.ar    1  UNL1        0.0702
      5 C          11.5846   81.5774   24.1943 C.ar    1  UNL1        0.1149
      6 N          12.3548   82.5841   23.7032 N.ar    1  UNL1       -0.2279
      7 C          13.8036   86.8227   23.5518 C.3     1  UNL1        0.0235
      8 C          14.0892   85.6709   24.5590 C.3     1  UNL1        0.0922
      9 N          13.9956   84.3546   23.9122 N.pl3   1  UNL1       -0.2932
     10 C          14.8642   84.0723   22.7600 C.3     1  UNL1        0.0923
     11 C          15.2327   85.3628   22.0085 C.3     1  UNL1        0.0252
     12 C          14.0607   86.3593   22.0742 C.3     1  UNL1        0.0471
     13 C          15.7499   87.8025   24.9136 C.3     1  UNL1        0.0001
     14 C          14.5921   88.0987   23.9569 C.3     1  UNL1        0.0018
     15 C          14.2459   87.4976   21.0475 C.3     1  UNL1        0.2054
     16 O          13.4096   87.3049   19.9049 O.3     1  UNL1       -0.4755
     17 C          13.8385   86.8757   18.6384 C.ar    1  UNL1        0.1388
     18 C          13.9766   87.7495   17.5442 C.ar    1  UNL1        0.0369
     19 C          14.4158   87.2650   16.3109 C.ar    1  UNL1        0.0033
     20 C          14.7116   85.9096   16.1501 C.ar    1  UNL1        0.0066
     21 C          14.5622   85.0171   17.2259 C.ar    1  UNL1        0.0785
     22 C          14.1300   85.5167   18.4684 C.ar    1  UNL1        0.0433
     23 C          14.8744   83.5746   17.0756 C.2     1  UNL1        0.3381
     24 O          14.7087   83.0124   15.9603 O.2     1  UNL1       -0.2451
     25 O          15.3652   82.8145   18.1365 O.3     1  UNL1       -0.4771
     26 H          15.6190   83.2208   19.0275 H       1  UNL1        0.2954
     27 N          10.8391   80.1935   26.1168 N.am    1  UNL1       -0.2766
     28 C          11.1549   78.7915   26.0534 C.2     1  UNL1        0.2839
     29 O          12.1634   78.3922   25.4124 O.2     1  UNL1       -0.2665
     30 H           9.9940   80.4944   26.6492 H       1  UNL1        0.1553
     31 C          10.3013   77.7869   26.7110 C.ar    1  UNL1        0.1946
     32 O          10.7538   76.9914   27.6642 O.2     1  UNL1       -0.4492
     33 C           9.7687   76.2130   28.0406 C.ar    1  UNL1        0.1452
     34 C           9.7998   75.2189   29.0124 C.ar    1  UNL1        0.0375
     35 C           8.6175   74.4987   29.2578 C.ar    1  UNL1        0.0031
     36 C           7.4278   74.7819   28.5331 C.ar    1  UNL1        0.0002
     37 C           7.4393   75.8039   27.5536 C.ar    1  UNL1        0.0028
     38 C           8.6307   76.4959   27.3358 C.ar    1  UNL1        0.0337
     39 C           8.9455   77.5276   26.4746 C.ar    1  UNL1        0.0202
     40 C           8.0088   78.2258   25.5359 C.3     1  UNL1        0.0345
     41 C           6.1848   74.0149   28.8006 C.ar    1  UNL1        0.0000
     42 C           5.3545   74.3533   29.8862 C.ar    1  UNL1        0.0000
     43 C           4.1844   73.6295   30.1356 C.ar    1  UNL1        0.0000
     44 C           3.8296   72.5631   29.3065 C.ar    1  UNL1        0.0000
     45 C           4.6444   72.2180   28.2261 C.ar    1  UNL1        0.0000
     46 C           5.8160   72.9377   27.9724 C.ar    1  UNL1        0.0000
@<TRIPOS>BOND
     1    13    14    1
     2    14     7    1
     3     7     8    1
     4     8     9    1
     5     9     1    1
     6     1     2   ar
     7     2     3   ar
     8     3     4   ar
     9     4    27    1
    10    27    28   am
    11    28    29    2
    12    28    31    1
    13    31    32   ar
    14    32    33   ar
    15    33    34   ar
    16    34    35   ar
    17    35    36   ar
    18    36    41    1
    19    41    42   ar
    20    42    43   ar
    21    43    44   ar
    22    44    45   ar
    23    45    46   ar
    24    36    37   ar
    25    37    38   ar
    26    38    39   ar
    27    39    40    1
    28     4     5   ar
    29     5     6   ar
    30     9    10    1
    31    10    11    1
    32    11    12    1
    33    12    15    1
    34    15    16    1
    35    16    17    1
    36    17    18   ar
    37    18    19   ar
    38    19    20   ar
    39    20    21   ar
    40    21    23    1
    41    23    24    2
    42    23    25    1
    43    21    22   ar
    44    12     7    1
    45    22    17   ar
    46     6     1   ar
    47    39    31   ar
    48    38    33   ar
    49    46    41   ar
    50    27    30    1
    51    25    26    1
@<TRIPOS>MOLECULE
*****
 46 51 0 0 0
SMALL
GASTEIGER

@<TRIPOS>ATOM
      1 C          13.1658   82.9697   24.4961 C.ar    1  UNL1        0.1318
      2 C          11.8012   83.1768   24.7499 C.ar    1  UNL1        0.0356
      3 C          11.0080   82.1052   25.1620 C.ar    1  UNL1        0.0191
      4 C          11.5704   80.8345   25.3298 C.ar    1  UNL1        0.0702
      5 C          12.9296   80.6580   25.0255 C.ar    1  UNL1        0.1149
      6 N          13.6822   81.7155   24.6216 N.ar    1  UNL1       -0.2279
      7 C          13.9443   86.5447   23.9266 C.3     1  UNL1        0.0235
      8 C          14.1448   85.2883   24.8234 C.3     1  UNL1        0.0922
      9 N          14.0101   84.0468   24.0486 N.pl3   1  UNL1       -0.2932
     10 C          14.8998   83.8345   22.8974 C.3     1  UNL1        0.0923
     11 C          15.3510   85.1718   22.2858 C.3     1  UNL1        0.0252
     12 C          14.2251   86.2139   22.4179 C.3     1  UNL1        0.0471
     13 C          13.9264   88.7602   25.2280 C.3     1  UNL1        0.0001
     14 C          14.7785   87.7351   24.4752 C.3     1  UNL1        0.0018
     15 C          14.4948   87.4355   21.5128 C.3     1  UNL1        0.2054
     16 O          14.3554   87.0967   20.1316 O.3     1  UNL1       -0.4755
     17 C          13.6058   87.8124   19.1839 C.ar    1  UNL1        0.1388
     18 C          12.3611   88.3973   19.4810 C.ar    1  UNL1        0.0369
     19 C          11.6661   89.1046   18.4984 C.ar    1  UNL1        0.0033
     20 C          12.1946   89.2287   17.2117 C.ar    1  UNL1        0.0066
     21 C          13.4279   88.6357   16.8895 C.ar    1  UNL1        0.0785
     22 C          14.1266   87.9346   17.8897 C.ar    1  UNL1        0.0433
     23 C          14.0070   88.7592   15.5294 C.2     1  UNL1        0.3381
     24 O          13.2588   88.6609   14.5204 O.2     1  UNL1       -0.2451
     25 O          15.3659   88.9982   15.3281 O.3     1  UNL1       -0.4771
     26 H          16.0048   89.1899   16.0887 H       1  UNL1        0.2954
     27 N          10.7336   79.7367   25.7298 N.am    1  UNL1       -0.2766
     28 C           9.6112   79.2590   24.9674 C.2     1  UNL1        0.2839
     29 O           9.2556   79.8519   23.9141 O.2     1  UNL1       -0.2665
     30 H          11.0011   79.2298   26.6014 H       1  UNL1        0.1553
     31 C           8.8355   78.0856   25.4054 C.ar    1  UNL1        0.1946
     32 O           8.7776   76.9726   24.6954 O.2     1  UNL1       -0.4492
     33 C           8.0127   76.1242   25.3381 C.ar    1  UNL1        0.1452
     34 C           7.6699   74.8333   24.9514 C.ar    1  UNL1        0.0375
     35 C           6.8291   74.0916   25.7997 C.ar    1  UNL1        0.0031
     36 C           6.3469   74.6475   27.0158 C.ar    1  UNL1        0.0002
     37 C           6.7221   75.9651   27.3727 C.ar    1  UNL1        0.0028
     38 C           7.5558   76.6716   26.5057 C.ar    1  UNL1        0.0337
     39 C           8.0894   77.9422   26.5819 C.ar    1  UNL1        0.0202
     40 C           7.9244   78.9150   27.7100 C.3     1  UNL1        0.0345
     41 C           5.4594   73.8550   27.9042 C.ar    1  UNL1        0.0000
     42 C           5.2613   72.4798   27.6760 C.ar    1  UNL1        0.0000
     43 C           4.4252   71.7359   28.5143 C.ar    1  UNL1        0.0000
     44 C           3.7795   72.3535   29.5876 C.ar    1  UNL1        0.0000
     45 C           3.9683   73.7167   29.8250 C.ar    1  UNL1        0.0000
     46 C           4.8025   74.4658   28.9895 C.ar    1  UNL1        0.0000
@<TRIPOS>BOND
     1    13    14    1
     2    14     7    1
     3     7     8    1
     4     8     9    1
     5     9     1    1
     6     1     2   ar
     7     2     3   ar
     8     3     4   ar
     9     4    27    1
    10    27    28   am
    11    28    29    2
    12    28    31    1
    13    31    32   ar
    14    32    33   ar
    15    33    34   ar
    16    34    35   ar
    17    35    36   ar
    18    36    41    1
    19    41    42   ar
    20    42    43   ar
    21    43    44   ar
    22    44    45   ar
    23    45    46   ar
    24    36    37   ar
    25    37    38   ar
    26    38    39   ar
    27    39    40    1
    28     4     5   ar
    29     5     6   ar
    30     9    10    1
    31    10    11    1
    32    11    12    1
    33    12    15    1
    34    15    16    1
    35    16    17    1
    36    17    18   ar
    37    18    19   ar
    38    19    20   ar
    39    20    21   ar
    40    21    23    1
    41    23    24    2
    42    23    25    1
    43    21    22   ar
    44    12     7    1
    45    22    17   ar
    46     6     1   ar
    47    39    31   ar
    48    38    33   ar
    49    46    41   ar
    50    27    30    1
    51    25    26    1
@<TRIPOS>MOLECULE
*****
 46 51 0 0 0
SMALL
GASTEIGER

@<TRIPOS>ATOM
      1 C           9.1145   78.6179   24.8785 C.ar    1  UNL1        0.1318
      2 C           9.4607   78.9840   23.5687 C.ar    1  UNL1        0.0356
      3 C          10.2167   80.1371   23.3541 C.ar    1  UNL1        0.0191
      4 C          10.6345   80.9188   24.4374 C.ar    1  UNL1        0.0702
      5 C          10.2327   80.5430   25.7291 C.ar    1  UNL1        0.1149
      6 N           9.4928   79.4177   25.9142 N.ar    1  UNL1       -0.2279
      7 C           6.5879   76.6891   26.7777 C.3     1  UNL1        0.0235
      8 C           6.9027   77.5517   25.5209 C.3     1  UNL1        0.0922
      9 N           8.3173   77.4469   25.1365 N.pl3   1  UNL1       -0.2932
     10 C           8.8676   76.1185   24.8298 C.3     1  UNL1        0.0923
     11 C           8.1083   75.0119   25.5814 C.3     1  UNL1        0.0252
     12 C           7.6396   75.5365   26.9511 C.3     1  UNL1        0.0471
     13 C           4.1771   77.0533   27.5888 C.3     1  UNL1        0.0001
     14 C           5.1153   76.1956   26.7358 C.3     1  UNL1        0.0018
     15 C           7.2001   74.3734   27.8666 C.3     1  UNL1        0.2054
     16 O           7.6230   74.5880   29.2147 O.3     1  UNL1       -0.4755
     17 C           7.3251   75.7153   29.9974 C.ar    1  UNL1        0.1388
     18 C           6.2231   75.7670   30.8707 C.ar    1  UNL1        0.0369
     19 C           5.9830   76.9135   31.6300 C.ar    1  UNL1        0.0033
     20 C           6.8272   78.0207   31.5219 C.ar    1  UNL1        0.0066
     21 C           7.9228   77.9960   30.6413 C.ar    1  UNL1        0.0785
     22 C           8.1635   76.8316   29.8886 C.ar    1  UNL1        0.0433
     23 C           8.8325   79.1609   30.5150 C.2     1  UNL1        0.3381
     24 O          10.0677   79.0137   30.7150 O.2     1  UNL1       -0.2451
     25 O           8.3624   80.4258   30.1633 O.3     1  UNL1       -0.4771
     26 H           7.4036   80.5947   29.8888 H       1  UNL1        0.2954
     27 N          11.3904   82.1171   24.1966 N.am    1  UNL1       -0.2766
     28 C          12.7017   82.3648   24.7336 C.2     1  UNL1        0.2839
     29 O          13.2324   81.5433   25.5279 O.2     1  UNL1       -0.2665
     30 H          10.9732   82.8182   23.5465 H       1  UNL1        0.1553
     31 C          13.4471   83.5888   24.3922 C.ar    1  UNL1        0.1946
     32 O          13.0401   84.7899   24.7638 O.2     1  UNL1       -0.4492
     33 C          13.9020   85.6660   24.3084 C.ar    1  UNL1        0.1452
     34 C          13.8627   87.0479   24.4578 C.ar    1  UNL1        0.0375
     35 C          14.8998   87.8036   23.8829 C.ar    1  UNL1        0.0031
     36 C          15.9555   87.1703   23.1723 C.ar    1  UNL1        0.0002
     37 C          15.9580   85.7603   23.0457 C.ar    1  UNL1        0.0028
     38 C          14.9120   85.0436   23.6270 C.ar    1  UNL1        0.0337
     39 C          14.6488   83.6897   23.6802 C.ar    1  UNL1        0.0202
     40 C          15.5035   82.5904   23.1261 C.3     1  UNL1        0.0345
     41 C          17.0457   87.9783   22.5694 C.ar    1  UNL1        0.0000
     42 C          18.2062   88.2791   23.3079 C.ar    1  UNL1        0.0000
     43 C          19.2313   89.0399   22.7375 C.ar    1  UNL1        0.0000
     44 C          19.1114   89.5075   21.4270 C.ar    1  UNL1        0.0000
     45 C          17.9657   89.2153   20.6838 C.ar    1  UNL1        0.0000
     46 C          16.9370   88.4556   21.2493 C.ar    1  UNL1        0.0000
@<TRIPOS>BOND
     1    13    14    1
     2    14     7    1
     3     7     8    1
     4     8     9    1
     5     9     1    1
     6     1     2   ar
     7     2     3   ar
     8     3     4   ar
     9     4    27    1
    10    27    28   am
    11    28    29    2
    12    28    31    1
    13    31    32   ar
    14    32    33   ar
    15    33    34   ar
    16    34    35   ar
    17    35    36   ar
    18    36    41    1
    19    41    42   ar
    20    42    43   ar
    21    43    44   ar
    22    44    45   ar
    23    45    46   ar
    24    36    37   ar
    25    37    38   ar
    26    38    39   ar
    27    39    40    1
    28     4     5   ar
    29     5     6   ar
    30     9    10    1
    31    10    11    1
    32    11    12    1
    33    12    15    1
    34    15    16    1
    35    16    17    1
    36    17    18   ar
    37    18    19   ar
    38    19    20   ar
    39    20    21   ar
    40    21    23    1
    41    23    24    2
    42    23    25    1
    43    21    22   ar
    44    12     7    1
    45    22    17   ar
    46     6     1   ar
    47    39    31   ar
    48    38    33   ar
    49    46    41   ar
    50    27    30    1
    51    25    26    1
@<TRIPOS>MOLECULE
*****
 46 51 0 0 0
SMALL
GASTEIGER

@<TRIPOS>ATOM
      1 C           8.8425   78.8596   24.9980 C.ar    1  UNL1        0.1318
      2 C           9.1827   79.2819   23.7036 C.ar    1  UNL1        0.0356
      3 C           9.9869   80.4101   23.5376 C.ar    1  UNL1        0.0191
      4 C          10.4586   81.1110   24.6536 C.ar    1  UNL1        0.0702
      5 C          10.0621   80.6825   25.9304 C.ar    1  UNL1        0.1149
      6 N           9.2747   79.5830   26.0682 N.ar    1  UNL1       -0.2279
      7 C           8.1979   75.3796   26.0866 C.3     1  UNL1        0.0235
      8 C           8.1002   76.8960   26.4243 C.3     1  UNL1        0.0922
      9 N           7.9970   77.7130   25.2072 N.pl3   1  UNL1       -0.2932
     10 C           6.8833   77.4602   24.2811 C.3     1  UNL1        0.0923
     11 C           6.4062   76.0004   24.3662 C.3     1  UNL1        0.0252
     12 C           7.6005   75.0763   24.6670 C.3     1  UNL1        0.0471
     13 C           7.6913   75.2017   28.5995 C.3     1  UNL1        0.0001
     14 C           7.5688   74.5333   27.2277 C.3     1  UNL1        0.0018
     15 C           7.2346   73.5990   24.4061 C.3     1  UNL1        0.2054
     16 O           7.6421   73.1882   23.0994 O.3     1  UNL1       -0.4755
     17 C           8.9659   73.1289   22.6346 C.ar    1  UNL1        0.1388
     18 C           9.7251   71.9443   22.6457 C.ar    1  UNL1        0.0369
     19 C          11.0346   71.9459   22.1620 C.ar    1  UNL1        0.0033
     20 C          11.6047   73.1234   21.6734 C.ar    1  UNL1        0.0066
     21 C          10.8693   74.3215   21.6711 C.ar    1  UNL1        0.0785
     22 C           9.5461   74.3076   22.1498 C.ar    1  UNL1        0.0433
     23 C          11.4565   75.5816   21.1533 C.2     1  UNL1        0.3381
     24 O          11.1868   76.6750   21.7182 O.2     1  UNL1       -0.2451
     25 O          12.3193   75.5946   20.0579 O.3     1  UNL1       -0.4771
     26 H          12.6598   74.7480   19.6214 H       1  UNL1        0.2954
     27 N          11.2644   82.2857   24.4637 N.am    1  UNL1       -0.2766
     28 C          12.7028   82.2884   24.4822 C.2     1  UNL1        0.2839
     29 O          13.3402   81.2349   24.7493 O.2     1  UNL1       -0.2665
     30 H          10.7632   83.1744   24.2461 H       1  UNL1        0.1553
     31 C          13.4668   83.5194   24.2152 C.ar    1  UNL1        0.1946
     32 O          13.0374   84.7118   24.5895 O.2     1  UNL1       -0.4492
     33 C          13.9248   85.5976   24.2076 C.ar    1  UNL1        0.1452
     34 C          13.8759   86.9757   24.3865 C.ar    1  UNL1        0.0375
     35 C          14.9453   87.7436   23.8932 C.ar    1  UNL1        0.0031
     36 C          16.0424   87.1262   23.2331 C.ar    1  UNL1        0.0002
     37 C          16.0534   85.7195   23.0740 C.ar    1  UNL1        0.0028
     38 C          14.9745   84.9904   23.5741 C.ar    1  UNL1        0.0337
     39 C          14.7093   83.6358   23.5796 C.ar    1  UNL1        0.0202
     40 C          15.5965   82.5490   23.0527 C.3     1  UNL1        0.0345
     41 C          17.1667   87.9471   22.7162 C.ar    1  UNL1        0.0000
     42 C          18.2456   88.2912   23.5530 C.ar    1  UNL1        0.0000
     43 C          19.3030   89.0641   23.0635 C.ar    1  UNL1        0.0000
     44 C          19.2968   89.5007   21.7369 C.ar    1  UNL1        0.0000
     45 C          18.2329   89.1654   20.8967 C.ar    1  UNL1        0.0000
     46 C          17.1723   88.3935   21.3810 C.ar    1  UNL1        0.0000
@<TRIPOS>BOND
     1    13    14    1
     2    14     7    1
     3     7     8    1
     4     8     9    1
     5     9     1    1
     6     1     2   ar
     7     2     3   ar
     8     3     4   ar
     9     4    27    1
    10    27    28   am
    11    28    29    2
    12    28    31    1
    13    31    32   ar
    14    32    33   ar
    15    33    34   ar
    16    34    35   ar
    17    35    36   ar
    18    36    41    1
    19    41    42   ar
    20    42    43   ar
    21    43    44   ar
    22    44    45   ar
    23    45    46   ar
    24    36    37   ar
    25    37    38   ar
    26    38    39   ar
    27    39    40    1
    28     4     5   ar
    29     5     6   ar
    30     9    10    1
    31    10    11    1
    32    11    12    1
    33    12    15    1
    34    15    16    1
    35    16    17    1
    36    17    18   ar
    37    18    19   ar
    38    19    20   ar
    39    20    21   ar
    40    21    23    1
    41    23    24    2
    42    23    25    1
    43    21    22   ar
    44    12     7    1
    45    22    17   ar
    46     6     1   ar
    47    39    31   ar
    48    38    33   ar
    49    46    41   ar
    50    27    30    1
    51    25    26    1
@<TRIPOS>MOLECULE
*****
 46 51 0 0 0
SMALL
GASTEIGER

@<TRIPOS>ATOM
      1 C           8.4000   77.9223   23.3892 C.ar    1  UNL1        0.1318
      2 C           8.5983   78.8505   22.3555 C.ar    1  UNL1        0.0356
      3 C           9.3496   80.0010   22.5991 C.ar    1  UNL1        0.0191
      4 C           9.9090   80.2241   23.8626 C.ar    1  UNL1        0.0702
      5 C           9.6531   79.2936   24.8823 C.ar    1  UNL1        0.1149
      6 N           8.9149   78.1818   24.6233 N.ar    1  UNL1       -0.2279
      7 C           7.4360   74.4223   24.1178 C.3     1  UNL1        0.0235
      8 C           7.1190   75.9341   24.3097 C.3     1  UNL1        0.0922
      9 N           7.6124   76.7351   23.1807 N.pl3   1  UNL1       -0.2932
     10 C           7.1317   76.4175   21.8280 C.3     1  UNL1        0.0923
     11 C           6.7371   74.9356   21.7088 C.3     1  UNL1        0.0252
     12 C           7.6518   74.0771   22.6017 C.3     1  UNL1        0.0471
     13 C           6.2138   73.8574   26.3064 C.3     1  UNL1        0.0001
     14 C           6.3512   73.5534   24.8124 C.3     1  UNL1        0.0018
     15 C           7.5289   72.5808   22.2408 C.3     1  UNL1        0.2054
     16 O           8.7505   71.8849   22.4968 O.3     1  UNL1       -0.4755
     17 C          10.0415   72.4252   22.3798 C.ar    1  UNL1        0.1388
     18 C          11.1220   71.7062   21.8363 C.ar    1  UNL1        0.0369
     19 C          12.3813   72.3004   21.7382 C.ar    1  UNL1        0.0033
     20 C          12.5815   73.6075   22.1871 C.ar    1  UNL1        0.0066
     21 C          11.5193   74.3362   22.7504 C.ar    1  UNL1        0.0785
     22 C          10.2508   73.7330   22.8345 C.ar    1  UNL1        0.0433
     23 C          11.7116   75.7267   23.2299 C.2     1  UNL1        0.3381
     24 O          12.4775   76.5045   22.6007 O.2     1  UNL1       -0.2451
     25 O          11.0533   76.2123   24.3592 O.3     1  UNL1       -0.4771
     26 H          10.3483   75.6793   24.8513 H       1  UNL1        0.2954
     27 N          10.6582   81.4266   24.1034 N.am    1  UNL1       -0.2766
     28 C          12.0048   81.4501   24.6087 C.2     1  UNL1        0.2839
     29 O          12.5799   80.3805   24.9442 O.2     1  UNL1       -0.2665
     30 H          10.2048   82.3284   23.8398 H       1  UNL1        0.1553
     31 C          12.7369   82.7183   24.7702 C.ar    1  UNL1        0.1946
     32 O          12.8573   83.5939   23.7877 O.2     1  UNL1       -0.4492
     33 C          13.5606   84.6058   24.2340 C.ar    1  UNL1        0.1452
     34 C          13.9355   85.7487   23.5364 C.ar    1  UNL1        0.0375
     35 C          14.6961   86.7167   24.2156 C.ar    1  UNL1        0.0031
     36 C          15.0676   86.5297   25.5749 C.ar    1  UNL1        0.0002
     37 C          14.6630   85.3522   26.2485 C.ar    1  UNL1        0.0028
     38 C          13.9113   84.4131   25.5424 C.ar    1  UNL1        0.0337
     39 C          13.3741   83.1993   25.9208 C.ar    1  UNL1        0.0202
     40 C          13.4381   82.5793   27.2837 C.3     1  UNL1        0.0345
     41 C          15.8710   87.5588   26.2824 C.ar    1  UNL1        0.0000
     42 C          15.3927   88.1506   27.4671 C.ar    1  UNL1        0.0000
     43 C          16.1514   89.1192   28.1314 C.ar    1  UNL1        0.0000
     44 C          17.3933   89.5070   27.6233 C.ar    1  UNL1        0.0000
     45 C          17.8791   88.9269   26.4495 C.ar    1  UNL1        0.0000
     46 C          17.1243   87.9585   25.7805 C.ar    1  UNL1        0.0000
@<TRIPOS>BOND
     1    13    14    1
     2    14     7    1
     3     7     8    1
     4     8     9    1
     5     9     1    1
     6     1     2   ar
     7     2     3   ar
     8     3     4   ar
     9     4    27    1
    10    27    28   am
    11    28    29    2
    12    28    31    1
    13    31    32   ar
    14    32    33   ar
    15    33    34   ar
    16    34    35   ar
    17    35    36   ar
    18    36    41    1
    19    41    42   ar
    20    42    43   ar
    21    43    44   ar
    22    44    45   ar
    23    45    46   ar
    24    36    37   ar
    25    37    38   ar
    26    38    39   ar
    27    39    40    1
    28     4     5   ar
    29     5     6   ar
    30     9    10    1
    31    10    11    1
    32    11    12    1
    33    12    15    1
    34    15    16    1
    35    16    17    1
    36    17    18   ar
    37    18    19   ar
    38    19    20   ar
    39    20    21   ar
    40    21    23    1
    41    23    24    2
    42    23    25    1
    43    21    22   ar
    44    12     7    1
    45    22    17   ar
    46     6     1   ar
    47    39    31   ar
    48    38    33   ar
    49    46    41   ar
    50    27    30    1
    51    25    26    1
@<TRIPOS>MOLECULE
*****
 46 51 0 0 0
SMALL
GASTEIGER

@<TRIPOS>ATOM
      1 C           8.6686   78.7435   26.2339 C.ar    1  UNL1        0.1318
      2 C           9.4072   79.5964   27.0685 C.ar    1  UNL1        0.0356
      3 C          10.2340   80.5669   26.5012 C.ar    1  UNL1        0.0191
      4 C          10.3201   80.6952   25.1101 C.ar    1  UNL1        0.0702
      5 C           9.5987   79.7961   24.3086 C.ar    1  UNL1        0.1149
      6 N           8.8026   78.8559   24.8830 N.ar    1  UNL1       -0.2279
      7 C           8.0226   75.3454   27.5555 C.3     1  UNL1        0.0235
      8 C           8.2814   76.8467   27.8751 C.3     1  UNL1        0.0922
      9 N           7.8220   77.7165   26.7833 N.pl3   1  UNL1       -0.2932
     10 C           6.4095   77.6548   26.3800 C.3     1  UNL1        0.0923
     11 C           5.8039   76.2720   26.6754 C.3     1  UNL1        0.0252
     12 C           6.8763   75.1819   26.4954 C.3     1  UNL1        0.0471
     13 C           9.0853   74.1601   29.5725 C.3     1  UNL1        0.0001
     14 C           7.7830   74.5500   28.8685 C.3     1  UNL1        0.0018
     15 C           6.2326   73.7800   26.4294 C.3     1  UNL1        0.2054
     16 O           6.6173   73.0896   25.2388 O.3     1  UNL1       -0.4755
     17 C           6.8742   73.6848   23.9931 C.ar    1  UNL1        0.1388
     18 C           8.1231   74.2387   23.6563 C.ar    1  UNL1        0.0369
     19 C           8.3207   74.8096   22.3979 C.ar    1  UNL1        0.0033
     20 C           7.2795   74.8449   21.4678 C.ar    1  UNL1        0.0066
     21 C           6.0188   74.3137   21.7917 C.ar    1  UNL1        0.0785
     22 C           5.8325   73.7299   23.0584 C.ar    1  UNL1        0.0433
     23 C           4.9016   74.3392   20.8161 C.2     1  UNL1        0.3381
     24 O           3.9326   75.1241   20.9961 O.2     1  UNL1       -0.2451
     25 O           4.8951   73.5239   19.6849 O.3     1  UNL1       -0.4771
     26 H           5.6838   72.9470   19.4234 H       1  UNL1        0.2954
     27 N          11.1963   81.6829   24.5426 N.am    1  UNL1       -0.2766
     28 C          12.2221   82.3700   25.2807 C.2     1  UNL1        0.2839
     29 O          12.3522   82.1822   26.5198 O.2     1  UNL1       -0.2665
     30 H          11.1078   81.8631   23.5189 H       1  UNL1        0.1553
     31 C          13.1285   83.3245   24.6191 C.ar    1  UNL1        0.1946
     32 O          13.2481   83.3893   23.3046 O.2     1  UNL1       -0.4492
     33 C          14.1254   84.3221   23.0255 C.ar    1  UNL1        0.1452
     34 C          14.5638   84.7223   21.7680 C.ar    1  UNL1        0.0375
     35 C          15.5188   85.7518   21.6988 C.ar    1  UNL1        0.0031
     36 C          16.0179   86.3637   22.8808 C.ar    1  UNL1        0.0002
     37 C          15.5430   85.9274   24.1410 C.ar    1  UNL1        0.0028
     38 C          14.5974   84.9024   24.1711 C.ar    1  UNL1        0.0337
     39 C          13.9528   84.2825   25.2225 C.ar    1  UNL1        0.0202
     40 C          14.0926   84.6142   26.6773 C.3     1  UNL1        0.0345
     41 C          17.0264   87.4503   22.7958 C.ar    1  UNL1        0.0000
     42 C          17.8125   87.7865   23.9145 C.ar    1  UNL1        0.0000
     43 C          18.7615   88.8099   23.8316 C.ar    1  UNL1        0.0000
     44 C          18.9376   89.5075   22.6345 C.ar    1  UNL1        0.0000
     45 C          18.1646   89.1831   21.5175 C.ar    1  UNL1        0.0000
     46 C          17.2134   88.1611   21.5949 C.ar    1  UNL1        0.0000
@<TRIPOS>BOND
     1    13    14    1
     2    14     7    1
     3     7     8    1
     4     8     9    1
     5     9     1    1
     6     1     2   ar
     7     2     3   ar
     8     3     4   ar
     9     4    27    1
    10    27    28   am
    11    28    29    2
    12    28    31    1
    13    31    32   ar
    14    32    33   ar
    15    33    34   ar
    16    34    35   ar
    17    35    36   ar
    18    36    41    1
    19    41    42   ar
    20    42    43   ar
    21    43    44   ar
    22    44    45   ar
    23    45    46   ar
    24    36    37   ar
    25    37    38   ar
    26    38    39   ar
    27    39    40    1
    28     4     5   ar
    29     5     6   ar
    30     9    10    1
    31    10    11    1
    32    11    12    1
    33    12    15    1
    34    15    16    1
    35    16    17    1
    36    17    18   ar
    37    18    19   ar
    38    19    20   ar
    39    20    21   ar
    40    21    23    1
    41    23    24    2
    42    23    25    1
    43    21    22   ar
    44    12     7    1
    45    22    17   ar
    46     6     1   ar
    47    39    31   ar
    48    38    33   ar
    49    46    41   ar
    50    27    30    1
    51    25    26    1
@<TRIPOS>MOLECULE
*****
 46 51 0 0 0
SMALL
GASTEIGER

@<TRIPOS>ATOM
      1 C           9.8287   78.2418   24.4350 C.ar    1  UNL1        0.1318
      2 C           9.1655   79.3787   23.9484 C.ar    1  UNL1        0.0356
      3 C           9.8939   80.5390   23.6831 C.ar    1  UNL1        0.0191
      4 C          11.2776   80.5667   23.8922 C.ar    1  UNL1        0.0702
      5 C          11.8985   79.4233   24.4197 C.ar    1  UNL1        0.1149
      6 N          11.1682   78.3054   24.6745 N.ar    1  UNL1       -0.2279
      7 C           7.0182   75.8698   24.0047 C.3     1  UNL1        0.0235
      8 C           8.5015   76.2139   23.6818 C.3     1  UNL1        0.0922
      9 N           9.1066   77.0341   24.7405 N.pl3   1  UNL1       -0.2932
     10 C           9.1317   76.5069   26.1128 C.3     1  UNL1        0.0923
     11 C           7.9702   75.5284   26.3568 C.3     1  UNL1        0.0252
     12 C           6.7370   75.9674   25.5460 C.3     1  UNL1        0.0471
     13 C           6.3448   74.5889   21.8813 C.3     1  UNL1        0.0001
     14 C           6.6366   74.4987   23.3814 C.3     1  UNL1        0.0018
     15 C           5.4672   75.2366   26.0336 C.3     1  UNL1        0.2054
     16 O           5.7577   74.3740   27.1353 O.3     1  UNL1       -0.4755
     17 C           5.7571   74.7458   28.4895 C.ar    1  UNL1        0.1388
     18 C           6.7237   74.2906   29.4051 C.ar    1  UNL1        0.0369
     19 C           6.6758   74.7021   30.7381 C.ar    1  UNL1        0.0033
     20 C           5.6639   75.5594   31.1759 C.ar    1  UNL1        0.0066
     21 C           4.6779   76.0104   30.2810 C.ar    1  UNL1        0.0785
     22 C           4.7412   75.5996   28.9366 C.ar    1  UNL1        0.0433
     23 C           3.5972   76.9238   30.7264 C.2     1  UNL1        0.3381
     24 O           3.8756   78.1076   31.0558 O.2     1  UNL1       -0.2451
     25 O           2.2649   76.5153   30.7790 O.3     1  UNL1       -0.4771
     26 H           1.9556   75.6165   30.4330 H       1  UNL1        0.2954
     27 N          12.0083   81.7779   23.6384 N.am    1  UNL1       -0.2766
     28 C          12.5715   82.6105   24.6674 C.2     1  UNL1        0.2839
     29 O          12.3775   82.3428   25.8832 O.2     1  UNL1       -0.2665
     30 H          12.1799   82.0278   22.6402 H       1  UNL1        0.1553
     31 C          13.3656   83.8053   24.3324 C.ar    1  UNL1        0.1946
     32 O          12.9743   85.0258   24.6539 O.2     1  UNL1       -0.4492
     33 C          13.8806   85.8670   24.2194 C.ar    1  UNL1        0.1452
     34 C          13.8721   87.2528   24.3324 C.ar    1  UNL1        0.0375
     35 C          14.9558   87.9659   23.7902 C.ar    1  UNL1        0.0031
     36 C          16.0267   87.2869   23.1477 C.ar    1  UNL1        0.0002
     37 C          15.9967   85.8745   23.0563 C.ar    1  UNL1        0.0028
     38 C          14.9048   85.2008   23.6036 C.ar    1  UNL1        0.0337
     39 C          14.6024   83.8561   23.6774 C.ar    1  UNL1        0.0202
     40 C          15.4523   82.7208   23.1929 C.3     1  UNL1        0.0345
     41 C          17.1663   88.0502   22.5786 C.ar    1  UNL1        0.0000
     42 C          17.0970   88.5730   21.2731 C.ar    1  UNL1        0.0000
     43 C          18.1714   89.2915   20.7399 C.ar    1  UNL1        0.0000
     44 C          19.3241   89.4971   21.5012 C.ar    1  UNL1        0.0000
     45 C          19.4049   88.9843   22.7977 C.ar    1  UNL1        0.0000
     46 C          18.3338   88.2642   23.3358 C.ar    1  UNL1        0.0000
@<TRIPOS>BOND
     1    13    14    1
     2    14     7    1
     3     7     8    1
     4     8     9    1
     5     9     1    1
     6     1     2   ar
     7     2     3   ar
     8     3     4   ar
     9     4    27    1
    10    27    28   am
    11    28    29    2
    12    28    31    1
    13    31    32   ar
    14    32    33   ar
    15    33    34   ar
    16    34    35   ar
    17    35    36   ar
    18    36    41    1
    19    41    42   ar
    20    42    43   ar
    21    43    44   ar
    22    44    45   ar
    23    45    46   ar
    24    36    37   ar
    25    37    38   ar
    26    38    39   ar
    27    39    40    1
    28     4     5   ar
    29     5     6   ar
    30     9    10    1
    31    10    11    1
    32    11    12    1
    33    12    15    1
    34    15    16    1
    35    16    17    1
    36    17    18   ar
    37    18    19   ar
    38    19    20   ar
    39    20    21   ar
    40    21    23    1
    41    23    24    2
    42    23    25    1
    43    21    22   ar
    44    12     7    1
    45    22    17   ar
    46     6     1   ar
    47    39    31   ar
    48    38    33   ar
    49    46    41   ar
    50    27    30    1
    51    25    26    1
