@<TRIPOS>MOLECULE
*****
 45 49 0 0 0
SMALL
GASTEIGER

@<TRIPOS>ATOM
      1 C         -27.4772   50.7310   -8.4566 C.3     1  UNL1        0.1562
      2 C         -27.2158   51.7052   -7.3006 C.3     1  UNL1        0.0622
      3 C         -28.1386   51.2711   -6.1304 C.3     1  UNL1        0.1294
      4 O         -28.8132   52.4064   -5.6382 O.3     1  UNL1       -0.3808
      5 C         -29.1675   50.3158   -6.7598 C.3     1  UNL1        0.1264
      6 N         -28.6721   49.9856   -8.0872 N.am    1  UNL1       -0.2544
      7 C         -29.2551   48.9333   -8.8786 C.2     1  UNL1        0.3081
      8 O         -30.3399   48.4062   -8.5087 O.2     1  UNL1       -0.2522
      9 N         -28.6048   48.4640  -10.0697 N.am    1  UNL1       -0.2681
     10 H         -28.1253   53.0325   -5.2880 H       1  UNL1        0.2107
     11 H         -27.5624   48.5079  -10.1124 H       1  UNL1        0.1564
     12 C         -27.3855   50.5443   -5.0000 C.ar    1  UNL1        0.0310
     13 C         -27.7324   49.2227   -4.6383 C.ar    1  UNL1        0.0026
     14 C         -27.0901   48.5747   -3.5806 C.ar    1  UNL1        0.0295
     15 C         -26.1135   49.2393   -2.8410 C.ar    1  UNL1        0.1424
     16 F         -25.4953   48.6094   -1.8118 F       1  UNL1       -0.2041
     17 C         -25.7914   50.5614   -3.1454 C.ar    1  UNL1        0.0590
     18 C         -26.4290   51.2203   -4.2019 C.ar    1  UNL1        0.1406
     19 F         -26.1231   52.5249   -4.4156 F       1  UNL1       -0.2044
     20 C         -29.3014   47.8500  -11.1675 C.ar    1  UNL1        0.0516
     21 C         -30.1175   48.6035  -12.0326 C.ar    1  UNL1        0.0156
     22 C         -30.7634   47.9870  -13.1086 C.ar    1  UNL1        0.0127
     23 C         -30.5928   46.6186  -13.3391 C.ar    1  UNL1        0.0578
     24 CL        -31.4026   45.8480  -14.6909 Cl      1  UNL1       -0.0822
     25 C         -29.7681   45.8674  -12.4962 C.ar    1  UNL1        0.0127
     26 C         -29.1201   46.4813  -11.4200 C.ar    1  UNL1        0.0156
     27 N         -26.5730   51.4840  -10.7618 N.am    1  UNL1       -0.2680
     28 C         -27.6260   51.4471   -9.7870 C.2     1  UNL1        0.2454
     29 O         -28.7477   51.9348  -10.0893 O.2     1  UNL1       -0.2730
     30 H         -26.8292   51.3823  -11.7696 H       1  UNL1        0.1563
     31 C         -22.4958   51.9623   -9.8113 C.ar    1  UNL1        0.2465
     32 C         -23.3669   51.3901   -8.8725 C.ar    1  UNL1        0.0736
     33 C         -24.7174   51.2232   -9.1829 C.ar    1  UNL1        0.0406
     34 C         -25.1931   51.6490  -10.4270 C.ar    1  UNL1        0.1346
     35 N         -24.3278   52.1695  -11.3381 N.ar    1  UNL1       -0.2228
     36 C         -23.0070   52.3330  -11.0641 C.ar    1  UNL1        0.1691
     37 C         -18.7743   52.1604  -10.1390 C.2     1  UNL1        0.0842
     38 C         -18.4301   52.5135   -8.8288 C.2     1  UNL1        0.0115
     39 C         -19.4234   52.7030   -7.8734 C.2     1  UNL1        0.0755
     40 C         -20.7595   52.5233   -8.2265 C.2     1  UNL1        0.2905
     41 N         -21.1023   52.1565   -9.4983 N.am    1  UNL1       -0.0844
     42 C         -20.1354   51.9765  -10.4581 C.2     1  UNL1        0.4188
     43 O         -20.4612   51.6575  -11.6361 O.2     1  UNL1       -0.2139
     44 C         -16.3522   51.6561  -10.4793 C.3     1  UNL1        0.0054
     45 C         -17.6877   51.9329  -11.1620 C.3     1  UNL1        0.0361
@<TRIPOS>BOND
     1    44    45    1
     2    45    37    1
     3    37    38    2
     4    38    39    1
     5    39    40    2
     6    40    41    1
     7    41    31    1
     8    31    32   ar
     9    32    33   ar
    10    33    34   ar
    11    34    27    1
    12    27    28   am
    13    28    29    2
    14    28     1    1
    15     1     2    1
    16     2     3    1
    17     3     4    1
    18     3    12    1
    19    12    13   ar
    20    13    14   ar
    21    14    15   ar
    22    15    16    1
    23    15    17   ar
    24    17    18   ar
    25    18    19    1
    26     3     5    1
    27     5     6    1
    28     6     7   am
    29     7     8    2
    30     7     9   am
    31     9    20    1
    32    20    21   ar
    33    21    22   ar
    34    22    23   ar
    35    23    24    1
    36    23    25   ar
    37    25    26   ar
    38    34    35   ar
    39    35    36   ar
    40    41    42    1
    41    42    43    2
    42    42    37    1
    43    36    31   ar
    44     6     1    1
    45    26    20   ar
    46    18    12   ar
    47    27    30    1
    48     4    10    1
    49     9    11    1
@<TRIPOS>MOLECULE
*****
 45 49 0 0 0
SMALL
GASTEIGER

@<TRIPOS>ATOM
      1 C         -28.4336   49.3020   -7.3656 C.3     1  UNL1        0.1562
      2 C         -28.3355   49.6528   -5.8752 C.3     1  UNL1        0.0622
      3 C         -28.6801   48.3613   -5.0863 C.3     1  UNL1        0.1294
      4 O         -29.6285   48.6752   -4.0922 O.3     1  UNL1       -0.3808
      5 C         -29.3315   47.4207   -6.1151 C.3     1  UNL1        0.1264
      6 N         -29.0783   47.9979   -7.4264 N.am    1  UNL1       -0.2544
      7 C         -29.3376   47.2713   -8.6422 C.2     1  UNL1        0.3081
      8 O         -29.9774   46.1851   -8.5923 O.2     1  UNL1       -0.2522
      9 N         -28.8578   47.7579   -9.9050 N.am    1  UNL1       -0.2681
     10 H         -29.2046   49.3258   -3.4717 H       1  UNL1        0.2107
     11 H         -27.9738   48.3138   -9.9157 H       1  UNL1        0.1564
     12 C         -27.4444   47.6761   -4.4725 C.ar    1  UNL1        0.0310
     13 C         -26.9866   46.4361   -4.9730 C.ar    1  UNL1        0.0026
     14 C         -25.8987   45.7826   -4.3892 C.ar    1  UNL1        0.0295
     15 C         -25.2655   46.3331   -3.2764 C.ar    1  UNL1        0.1424
     16 F         -24.2129   45.6941   -2.7089 F       1  UNL1       -0.2041
     17 C         -25.7322   47.5292   -2.7324 C.ar    1  UNL1        0.0590
     18 C         -26.8214   48.1915   -3.3084 C.ar    1  UNL1        0.1406
     19 F         -27.2739   49.3184   -2.7028 F       1  UNL1       -0.2044
     20 C         -29.4740   47.4430  -11.1654 C.ar    1  UNL1        0.0516
     21 C         -30.3077   48.3655  -11.8258 C.ar    1  UNL1        0.0156
     22 C         -30.8739   48.0448  -13.0633 C.ar    1  UNL1        0.0127
     23 C         -30.6054   46.8086  -13.6588 C.ar    1  UNL1        0.0578
     24 CL        -31.3154   46.4095  -15.2124 Cl      1  UNL1       -0.0822
     25 C         -29.7625   45.8950  -13.0187 C.ar    1  UNL1        0.0127
     26 C         -29.1940   46.2133  -11.7816 C.ar    1  UNL1        0.0156
     27 N         -28.6715   50.9149   -9.3756 N.am    1  UNL1       -0.2680
     28 C         -29.1839   50.3595   -8.1551 C.2     1  UNL1        0.2454
     29 O         -30.3432   50.6833   -7.7830 O.2     1  UNL1       -0.2730
     30 H         -29.3415   51.0905  -10.1578 H       1  UNL1        0.1563
     31 C         -24.6185   51.9022   -9.9709 C.ar    1  UNL1        0.2465
     32 C         -25.1819   50.8235  -10.6684 C.ar    1  UNL1        0.0736
     33 C         -26.5252   50.4946  -10.4807 C.ar    1  UNL1        0.0406
     34 C         -27.2937   51.2372   -9.5786 C.ar    1  UNL1        0.1346
     35 N         -26.7405   52.3013   -8.9373 N.ar    1  UNL1       -0.2228
     36 C         -25.4382   52.6481   -9.1106 C.ar    1  UNL1        0.1691
     37 C         -20.9641   52.3569   -9.3113 C.2     1  UNL1        0.0842
     38 C         -20.5682   52.9493  -10.5164 C.2     1  UNL1        0.0115
     39 C         -21.4995   53.1646  -11.5272 C.2     1  UNL1        0.0755
     40 C         -22.8296   52.8011  -11.3247 C.2     1  UNL1        0.2905
     41 N         -23.2285   52.2428  -10.1420 N.am    1  UNL1       -0.0844
     42 C         -22.3201   52.0118   -9.1370 C.2     1  UNL1        0.4188
     43 O         -22.6924   51.4769   -8.0549 O.2     1  UNL1       -0.2139
     44 C         -19.7079   53.4491   -7.4498 C.3     1  UNL1        0.0054
     45 C         -19.9510   52.1503   -8.2115 C.3     1  UNL1        0.0361
@<TRIPOS>BOND
     1    44    45    1
     2    45    37    1
     3    37    38    2
     4    38    39    1
     5    39    40    2
     6    40    41    1
     7    41    31    1
     8    31    32   ar
     9    32    33   ar
    10    33    34   ar
    11    34    27    1
    12    27    28   am
    13    28    29    2
    14    28     1    1
    15     1     2    1
    16     2     3    1
    17     3     4    1
    18     3    12    1
    19    12    13   ar
    20    13    14   ar
    21    14    15   ar
    22    15    16    1
    23    15    17   ar
    24    17    18   ar
    25    18    19    1
    26     3     5    1
    27     5     6    1
    28     6     7   am
    29     7     8    2
    30     7     9   am
    31     9    20    1
    32    20    21   ar
    33    21    22   ar
    34    22    23   ar
    35    23    24    1
    36    23    25   ar
    37    25    26   ar
    38    34    35   ar
    39    35    36   ar
    40    41    42    1
    41    42    43    2
    42    42    37    1
    43    36    31   ar
    44     6     1    1
    45    26    20   ar
    46    18    12   ar
    47    27    30    1
    48     4    10    1
    49     9    11    1
@<TRIPOS>MOLECULE
*****
 45 49 0 0 0
SMALL
GASTEIGER

@<TRIPOS>ATOM
      1 C         -28.8524   49.7286   -8.1914 C.3     1  UNL1        0.1562
      2 C         -28.6550   50.4149   -9.5493 C.3     1  UNL1        0.0622
      3 C         -27.7509   51.6516   -9.3001 C.3     1  UNL1        0.1294
      4 O         -28.3344   52.7740   -9.9213 O.3     1  UNL1       -0.3808
      5 C         -27.7662   51.8633   -7.7762 C.3     1  UNL1        0.1264
      6 N         -28.3534   50.6658   -7.1950 N.am    1  UNL1       -0.2544
      7 C         -28.3156   50.4083   -5.7787 C.2     1  UNL1        0.3081
      8 O         -27.9407   51.3199   -4.9915 O.2     1  UNL1       -0.2522
      9 N         -28.6783   49.1208   -5.2565 N.am    1  UNL1       -0.2681
     10 H         -28.3646   52.5912  -10.8978 H       1  UNL1        0.2107
     11 H         -28.5051   48.2805   -5.8518 H       1  UNL1        0.1564
     12 C         -26.3000   51.4499   -9.7771 C.ar    1  UNL1        0.0310
     13 C         -25.2211   51.5788   -8.8732 C.ar    1  UNL1        0.0026
     14 C         -23.8998   51.4487   -9.3076 C.ar    1  UNL1        0.0295
     15 C         -23.6243   51.2205  -10.6546 C.ar    1  UNL1        0.1424
     16 F         -22.3407   51.0996  -11.0740 F       1  UNL1       -0.2041
     17 C         -24.6698   51.1419  -11.5739 C.ar    1  UNL1        0.0590
     18 C         -25.9965   51.2716  -11.1501 C.ar    1  UNL1        0.1406
     19 F         -26.9713   51.2495  -12.0939 F       1  UNL1       -0.2044
     20 C         -29.1784   48.9145   -3.9243 C.ar    1  UNL1        0.0516
     21 C         -28.3960   48.2887   -2.9352 C.ar    1  UNL1        0.0156
     22 C         -28.8959   48.1235   -1.6399 C.ar    1  UNL1        0.0127
     23 C         -30.1734   48.5902   -1.3157 C.ar    1  UNL1        0.0578
     24 CL        -30.7974   48.3836    0.3106 Cl      1  UNL1       -0.0822
     25 C         -30.9487   49.2306   -2.2872 C.ar    1  UNL1        0.0127
     26 C         -30.4511   49.3982   -3.5830 C.ar    1  UNL1        0.0156
     27 N         -30.9567   48.3147   -8.7118 N.am    1  UNL1       -0.2680
     28 C         -30.3000   49.3395   -7.9509 C.2     1  UNL1        0.2454
     29 O         -30.9130   49.8595   -6.9808 O.2     1  UNL1       -0.2730
     30 H         -31.6002   47.6625   -8.2096 H       1  UNL1        0.1563
     31 C         -30.4570   47.8015  -12.8643 C.ar    1  UNL1        0.2465
     32 C         -29.8052   46.9369  -11.9725 C.ar    1  UNL1        0.0736
     33 C         -29.9710   47.0973  -10.5961 C.ar    1  UNL1        0.0406
     34 C         -30.7748   48.1372  -10.1185 C.ar    1  UNL1        0.1346
     35 N         -31.4269   48.9443  -10.9978 N.ar    1  UNL1       -0.2228
     36 C         -31.2901   48.8023  -12.3422 C.ar    1  UNL1        0.1691
     37 C         -29.6462   48.5541  -16.4381 C.2     1  UNL1        0.0842
     38 C         -29.9943   47.3349  -17.0317 C.2     1  UNL1        0.0115
     39 C         -30.4631   46.2858  -16.2475 C.2     1  UNL1        0.0755
     40 C         -30.5980   46.4633  -14.8718 C.2     1  UNL1        0.2905
     41 N         -30.2815   47.6584  -14.2877 N.am    1  UNL1       -0.0844
     42 C         -29.8058   48.7018  -15.0450 C.2     1  UNL1        0.4188
     43 O         -29.4962   49.7962  -14.4953 O.2     1  UNL1       -0.2139
     44 C         -27.6517   49.6186  -17.4988 C.3     1  UNL1        0.0054
     45 C         -29.1621   49.6943  -17.3008 C.3     1  UNL1        0.0361
@<TRIPOS>BOND
     1    44    45    1
     2    45    37    1
     3    37    38    2
     4    38    39    1
     5    39    40    2
     6    40    41    1
     7    41    31    1
     8    31    32   ar
     9    32    33   ar
    10    33    34   ar
    11    34    27    1
    12    27    28   am
    13    28    29    2
    14    28     1    1
    15     1     2    1
    16     2     3    1
    17     3     4    1
    18     3    12    1
    19    12    13   ar
    20    13    14   ar
    21    14    15   ar
    22    15    16    1
    23    15    17   ar
    24    17    18   ar
    25    18    19    1
    26     3     5    1
    27     5     6    1
    28     6     7   am
    29     7     8    2
    30     7     9   am
    31     9    20    1
    32    20    21   ar
    33    21    22   ar
    34    22    23   ar
    35    23    24    1
    36    23    25   ar
    37    25    26   ar
    38    34    35   ar
    39    35    36   ar
    40    41    42    1
    41    42    43    2
    42    42    37    1
    43    36    31   ar
    44     6     1    1
    45    26    20   ar
    46    18    12   ar
    47    27    30    1
    48     4    10    1
    49     9    11    1
@<TRIPOS>MOLECULE
*****
 45 49 0 0 0
SMALL
GASTEIGER

@<TRIPOS>ATOM
      1 C         -29.2282   49.0507   -7.8888 C.3     1  UNL1        0.1562
      2 C         -29.4771   49.9979   -9.0697 C.3     1  UNL1        0.0622
      3 C         -28.6301   49.4673  -10.2571 C.3     1  UNL1        0.1294
      4 O         -27.9090   50.5411  -10.8169 O.3     1  UNL1       -0.3808
      5 C         -27.6358   48.4733   -9.6322 C.3     1  UNL1        0.1264
      6 N         -28.0961   48.2207   -8.2754 N.am    1  UNL1       -0.2544
      7 C         -27.5458   47.1630   -7.4680 C.2     1  UNL1        0.3081
      8 O         -26.5104   46.5576   -7.8591 O.2     1  UNL1       -0.2522
      9 N         -28.1744   46.7765   -6.2363 N.am    1  UNL1       -0.2681
     10 H         -28.5717   51.1956  -11.1637 H       1  UNL1        0.2107
     11 H         -29.2098   46.8859   -6.1555 H       1  UNL1        0.1564
     12 C         -29.4704   48.7490  -11.3300 C.ar    1  UNL1        0.0310
     13 C         -29.5094   47.3373  -11.3871 C.ar    1  UNL1        0.0026
     14 C         -30.2269   46.6778  -12.3880 C.ar    1  UNL1        0.0295
     15 C         -30.8924   47.4086  -13.3704 C.ar    1  UNL1        0.1424
     16 F         -31.5839   46.7656  -14.3434 F       1  UNL1       -0.2041
     17 C         -30.8250   48.8014  -13.3656 C.ar    1  UNL1        0.0590
     18 C         -30.1087   49.4720  -12.3686 C.ar    1  UNL1        0.1406
     19 F         -30.0235   50.8241  -12.4462 F       1  UNL1       -0.2044
     20 C         -27.4721   46.1598   -5.1437 C.ar    1  UNL1        0.0516
     21 C         -27.8347   44.8872   -4.6628 C.ar    1  UNL1        0.0156
     22 C         -27.1189   44.2981   -3.6161 C.ar    1  UNL1        0.0127
     23 C         -26.0296   44.9655   -3.0478 C.ar    1  UNL1        0.0578
     24 CL        -25.1320   44.2233   -1.7361 Cl      1  UNL1       -0.0822
     25 C         -25.6509   46.2208   -3.5332 C.ar    1  UNL1        0.0127
     26 C         -26.3642   46.8120   -4.5804 C.ar    1  UNL1        0.0156
     27 N         -28.2208   51.0177   -6.5418 N.am    1  UNL1       -0.2680
     28 C         -28.9831   49.8024   -6.5928 C.2     1  UNL1        0.2454
     29 O         -29.5566   49.4036   -5.5443 O.2     1  UNL1       -0.2730
     30 H         -28.5550   51.7843   -5.9156 H       1  UNL1        0.1563
     31 C         -24.7365   51.6670   -8.8209 C.ar    1  UNL1        0.2465
     32 C         -24.7336   50.6999   -7.8048 C.ar    1  UNL1        0.0736
     33 C         -25.8859   50.4754   -7.0500 C.ar    1  UNL1        0.0406
     34 C         -27.0316   51.2358   -7.3043 C.ar    1  UNL1        0.1346
     35 N         -27.0273   52.1446   -8.3162 N.ar    1  UNL1       -0.2228
     36 C         -25.9217   52.3745   -9.0719 C.ar    1  UNL1        0.1691
     37 C         -21.1603   52.2332   -9.7621 C.2     1  UNL1        0.0842
     38 C         -21.2988   52.4475  -11.1386 C.2     1  UNL1        0.0115
     39 C         -22.5549   52.3780  -11.7327 C.2     1  UNL1        0.0755
     40 C         -23.6732   52.1096  -10.9456 C.2     1  UNL1        0.2905
     41 N         -23.5490   51.9215   -9.5970 N.am    1  UNL1       -0.0844
     42 C         -22.3148   51.9748   -8.9950 C.2     1  UNL1        0.4188
     43 O         -22.2055   51.7797   -7.7517 O.2     1  UNL1       -0.2139
     44 C         -19.5520   53.7447   -8.5937 C.3     1  UNL1        0.0054
     45 C         -19.7965   52.3354   -9.1231 C.3     1  UNL1        0.0361
@<TRIPOS>BOND
     1    44    45    1
     2    45    37    1
     3    37    38    2
     4    38    39    1
     5    39    40    2
     6    40    41    1
     7    41    31    1
     8    31    32   ar
     9    32    33   ar
    10    33    34   ar
    11    34    27    1
    12    27    28   am
    13    28    29    2
    14    28     1    1
    15     1     2    1
    16     2     3    1
    17     3     4    1
    18     3    12    1
    19    12    13   ar
    20    13    14   ar
    21    14    15   ar
    22    15    16    1
    23    15    17   ar
    24    17    18   ar
    25    18    19    1
    26     3     5    1
    27     5     6    1
    28     6     7   am
    29     7     8    2
    30     7     9   am
    31     9    20    1
    32    20    21   ar
    33    21    22   ar
    34    22    23   ar
    35    23    24    1
    36    23    25   ar
    37    25    26   ar
    38    34    35   ar
    39    35    36   ar
    40    41    42    1
    41    42    43    2
    42    42    37    1
    43    36    31   ar
    44     6     1    1
    45    26    20   ar
    46    18    12   ar
    47    27    30    1
    48     4    10    1
    49     9    11    1
@<TRIPOS>MOLECULE
*****
 45 49 0 0 0
SMALL
GASTEIGER

@<TRIPOS>ATOM
      1 C         -27.8566   50.9448   -8.3798 C.3     1  UNL1        0.1562
      2 C         -27.7088   51.9532   -7.2329 C.3     1  UNL1        0.0622
      3 C         -28.5277   51.3968   -6.0376 C.3     1  UNL1        0.1294
      4 O         -29.3465   52.4252   -5.5294 O.3     1  UNL1       -0.3808
      5 C         -29.4235   50.2989   -6.6372 C.3     1  UNL1        0.1264
      6 N         -28.9207   50.0363   -7.9769 N.am    1  UNL1       -0.2544
      7 C         -29.3657   48.9061   -8.7504 C.2     1  UNL1        0.3081
      8 O         -30.3525   48.2296   -8.3504 O.2     1  UNL1       -0.2522
      9 N         -28.6859   48.5291   -9.9576 N.am    1  UNL1       -0.2681
     10 H         -28.7476   53.1463   -5.1991 H       1  UNL1        0.2107
     11 H         -27.6623   48.7233  -10.0285 H       1  UNL1        0.1564
     12 C         -27.6477   50.7932   -4.9265 C.ar    1  UNL1        0.0310
     13 C         -26.4734   51.4541   -4.5001 C.ar    1  UNL1        0.0026
     14 C         -25.6422   50.8889   -3.5300 C.ar    1  UNL1        0.0295
     15 C         -25.9448   49.6408   -2.9888 C.ar    1  UNL1        0.1424
     16 F         -25.1336   49.0926   -2.0510 F       1  UNL1       -0.2041
     17 C         -27.0696   48.9457   -3.4318 C.ar    1  UNL1        0.0590
     18 C         -27.9083   49.5019   -4.4034 C.ar    1  UNL1        0.1406
     19 F         -28.9537   48.7571   -4.8437 F       1  UNL1       -0.2044
     20 C         -29.3149   47.8145  -11.0351 C.ar    1  UNL1        0.0516
     21 C         -29.0928   46.4381  -11.2316 C.ar    1  UNL1        0.0156
     22 C         -29.7372   45.7608  -12.2713 C.ar    1  UNL1        0.0127
     23 C         -30.6164   46.4450  -13.1161 C.ar    1  UNL1        0.0578
     24 CL        -31.4250   45.5924  -14.4185 Cl      1  UNL1       -0.0822
     25 C         -30.8575   47.8075  -12.9151 C.ar    1  UNL1        0.0127
     26 C         -30.2154   48.4873  -11.8757 C.ar    1  UNL1        0.0156
     27 N         -27.2217   51.5799  -10.8071 N.am    1  UNL1       -0.2680
     28 C         -28.1427   51.6242   -9.7069 C.2     1  UNL1        0.2454
     29 O         -29.2717   52.1544   -9.8841 O.2     1  UNL1       -0.2730
     30 H         -27.6083   51.4582  -11.7701 H       1  UNL1        0.1563
     31 C         -23.0408   51.8671  -10.3670 C.ar    1  UNL1        0.2465
     32 C         -23.8821   52.6070   -9.5230 C.ar    1  UNL1        0.0736
     33 C         -25.2679   52.5121   -9.6591 C.ar    1  UNL1        0.0406
     34 C         -25.8047   51.6900  -10.6549 C.ar    1  UNL1        0.1346
     35 N         -24.9750   50.9531  -11.4413 N.ar    1  UNL1       -0.2228
     36 C         -23.6231   51.0200  -11.3218 C.ar    1  UNL1        0.1691
     37 C         -19.6186   52.3525   -8.9357 C.2     1  UNL1        0.0842
     38 C         -18.8430   52.1828  -10.0888 C.2     1  UNL1        0.0115
     39 C         -19.4539   51.8893  -11.3037 C.2     1  UNL1        0.0755
     40 C         -20.8419   51.7816  -11.3664 C.2     1  UNL1        0.2905
     41 N         -21.6079   51.9682  -10.2492 N.am    1  UNL1       -0.0844
     42 C         -21.0209   52.2470   -9.0383 C.2     1  UNL1        0.4188
     43 O         -21.7339   52.3979   -8.0065 O.2     1  UNL1       -0.2139
     44 C         -18.8978   54.2061   -7.4254 C.3     1  UNL1        0.0054
     45 C         -18.9480   52.6952   -7.6274 C.3     1  UNL1        0.0361
@<TRIPOS>BOND
     1    44    45    1
     2    45    37    1
     3    37    38    2
     4    38    39    1
     5    39    40    2
     6    40    41    1
     7    41    31    1
     8    31    32   ar
     9    32    33   ar
    10    33    34   ar
    11    34    27    1
    12    27    28   am
    13    28    29    2
    14    28     1    1
    15     1     2    1
    16     2     3    1
    17     3     4    1
    18     3    12    1
    19    12    13   ar
    20    13    14   ar
    21    14    15   ar
    22    15    16    1
    23    15    17   ar
    24    17    18   ar
    25    18    19    1
    26     3     5    1
    27     5     6    1
    28     6     7   am
    29     7     8    2
    30     7     9   am
    31     9    20    1
    32    20    21   ar
    33    21    22   ar
    34    22    23   ar
    35    23    24    1
    36    23    25   ar
    37    25    26   ar
    38    34    35   ar
    39    35    36   ar
    40    41    42    1
    41    42    43    2
    42    42    37    1
    43    36    31   ar
    44     6     1    1
    45    26    20   ar
    46    18    12   ar
    47    27    30    1
    48     4    10    1
    49     9    11    1
@<TRIPOS>MOLECULE
*****
 45 49 0 0 0
SMALL
GASTEIGER

@<TRIPOS>ATOM
      1 C         -28.7034   49.7854   -8.7027 C.3     1  UNL1        0.1562
      2 C         -28.3094   51.0798   -9.4260 C.3     1  UNL1        0.0622
      3 C         -27.1082   51.6809   -8.6482 C.3     1  UNL1        0.1294
      4 O         -27.3581   53.0474   -8.4108 O.3     1  UNL1       -0.3808
      5 C         -27.0866   50.9384   -7.3007 C.3     1  UNL1        0.1264
      6 N         -27.9834   49.8010   -7.4373 N.am    1  UNL1       -0.2544
      7 C         -28.0360   48.7493   -6.4551 C.2     1  UNL1        0.3081
      8 O         -27.4396   48.8978   -5.3534 O.2     1  UNL1       -0.2522
      9 N         -28.7403   47.5274   -6.7247 N.am    1  UNL1       -0.2681
     10 H         -27.4232   53.4958   -9.2954 H       1  UNL1        0.2107
     11 H         -28.7924   47.1961   -7.7136 H       1  UNL1        0.1564
     12 C         -25.7594   51.4839   -9.3660 C.ar    1  UNL1        0.0310
     13 C         -24.5423   51.6240   -8.6613 C.ar    1  UNL1        0.0026
     14 C         -23.3143   51.4982   -9.3153 C.ar    1  UNL1        0.0295
     15 C         -23.2725   51.2633  -10.6884 C.ar    1  UNL1        0.1424
     16 F         -22.0791   51.1466  -11.3212 F       1  UNL1       -0.2041
     17 C         -24.4596   51.1736  -11.4143 C.ar    1  UNL1        0.0590
     18 C         -25.6948   51.2989  -10.7698 C.ar    1  UNL1        0.1406
     19 F         -26.8169   51.2660  -11.5322 F       1  UNL1       -0.2044
     20 C         -29.2957   46.6861   -5.6994 C.ar    1  UNL1        0.0516
     21 C         -28.5777   45.5932   -5.1777 C.ar    1  UNL1        0.0156
     22 C         -29.1298   44.8062   -4.1624 C.ar    1  UNL1        0.0127
     23 C         -30.3954   45.1076   -3.6502 C.ar    1  UNL1        0.0578
     24 CL        -31.0849   44.1200   -2.3751 Cl      1  UNL1       -0.0822
     25 C         -31.1062   46.2034   -4.1492 C.ar    1  UNL1        0.0127
     26 C         -30.5563   46.9928   -5.1637 C.ar    1  UNL1        0.0156
     27 N         -31.0127   48.7913   -9.3170 N.am    1  UNL1       -0.2680
     28 C         -30.2054   49.6675   -8.5163 C.2     1  UNL1        0.2454
     29 O         -30.7459   50.2798   -7.5569 O.2     1  UNL1       -0.2730
     30 H         -31.7825   48.2630   -8.8481 H       1  UNL1        0.1563
     31 C         -30.4021   48.2137  -13.4461 C.ar    1  UNL1        0.2465
     32 C         -31.0773   49.3578  -12.9956 C.ar    1  UNL1        0.0736
     33 C         -31.2778   49.5585  -11.6291 C.ar    1  UNL1        0.0406
     34 C         -30.8172   48.6007  -10.7202 C.ar    1  UNL1        0.1346
     35 N         -30.1341   47.5150  -11.1723 N.ar    1  UNL1       -0.2228
     36 C         -29.9170   47.3020  -12.4966 C.ar    1  UNL1        0.1691
     37 C         -29.3981   48.6969  -17.0175 C.2     1  UNL1        0.0842
     38 C         -29.8751   47.5028  -17.5712 C.2     1  UNL1        0.0115
     39 C         -30.4924   46.5555  -16.7606 C.2     1  UNL1        0.0755
     40 C         -30.6459   46.8113  -15.3993 C.2     1  UNL1        0.2905
     41 N         -30.2028   47.9849  -14.8552 N.am    1  UNL1       -0.0844
     42 C         -29.5801   48.9269  -15.6383 C.2     1  UNL1        0.4188
     43 O         -29.1553   49.9999  -15.1246 O.2     1  UNL1       -0.2139
     44 C         -29.8036   50.4669  -18.7319 C.3     1  UNL1        0.0054
     45 C         -28.7520   49.7290  -17.9097 C.3     1  UNL1        0.0361
@<TRIPOS>BOND
     1    44    45    1
     2    45    37    1
     3    37    38    2
     4    38    39    1
     5    39    40    2
     6    40    41    1
     7    41    31    1
     8    31    32   ar
     9    32    33   ar
    10    33    34   ar
    11    34    27    1
    12    27    28   am
    13    28    29    2
    14    28     1    1
    15     1     2    1
    16     2     3    1
    17     3     4    1
    18     3    12    1
    19    12    13   ar
    20    13    14   ar
    21    14    15   ar
    22    15    16    1
    23    15    17   ar
    24    17    18   ar
    25    18    19    1
    26     3     5    1
    27     5     6    1
    28     6     7   am
    29     7     8    2
    30     7     9   am
    31     9    20    1
    32    20    21   ar
    33    21    22   ar
    34    22    23   ar
    35    23    24    1
    36    23    25   ar
    37    25    26   ar
    38    34    35   ar
    39    35    36   ar
    40    41    42    1
    41    42    43    2
    42    42    37    1
    43    36    31   ar
    44     6     1    1
    45    26    20   ar
    46    18    12   ar
    47    27    30    1
    48     4    10    1
    49     9    11    1
@<TRIPOS>MOLECULE
*****
 45 49 0 0 0
SMALL
GASTEIGER

@<TRIPOS>ATOM
      1 C         -27.6353   50.5908   -8.6976 C.3     1  UNL1        0.1562
      2 C         -29.1614   50.4404   -8.6506 C.3     1  UNL1        0.0622
      3 C         -29.6644   50.5063  -10.1174 C.3     1  UNL1        0.1294
      4 O         -30.7384   51.4162  -10.1893 O.3     1  UNL1       -0.3808
      5 C         -28.4820   51.0686  -10.9256 C.3     1  UNL1        0.1264
      6 N         -27.3182   51.0136  -10.0544 N.am    1  UNL1       -0.2544
      7 C         -25.9846   51.2398  -10.5484 C.2     1  UNL1        0.3081
      8 O         -25.8225   51.6854  -11.7174 O.2     1  UNL1       -0.2522
      9 N         -24.8398   50.9433   -9.7340 N.am    1  UNL1       -0.2681
     10 H         -31.4684   51.0604   -9.6162 H       1  UNL1        0.2107
     11 H         -24.9160   50.1668   -9.0400 H       1  UNL1        0.1564
     12 C         -30.0678   49.1318  -10.6840 C.ar    1  UNL1        0.0310
     13 C         -29.7259   47.9432   -9.9998 C.ar    1  UNL1        0.0026
     14 C         -30.0421   46.6910  -10.5321 C.ar    1  UNL1        0.0295
     15 C         -30.6750   46.5952  -11.7700 C.ar    1  UNL1        0.1424
     16 F         -30.9763   45.3783  -12.2863 F       1  UNL1       -0.2041
     17 C         -30.9751   47.7522  -12.4881 C.ar    1  UNL1        0.0590
     18 C         -30.6622   49.0113  -11.9651 C.ar    1  UNL1        0.1406
     19 F         -30.9191   50.1009  -12.7320 F       1  UNL1       -0.2044
     20 C         -23.5656   51.5918   -9.8860 C.ar    1  UNL1        0.0516
     21 C         -23.1851   52.1865  -11.1041 C.ar    1  UNL1        0.0156
     22 C         -21.9511   52.8339  -11.2182 C.ar    1  UNL1        0.0127
     23 C         -21.0913   52.9049  -10.1179 C.ar    1  UNL1        0.0578
     24 CL        -19.5446   53.7195  -10.2631 Cl      1  UNL1       -0.0822
     25 C         -21.4705   52.3342   -8.8992 C.ar    1  UNL1        0.0127
     26 C         -22.7043   51.6870   -8.7818 C.ar    1  UNL1        0.0156
     27 N         -26.7301   51.1397   -6.3359 N.am    1  UNL1       -0.2680
     28 C         -27.1226   51.5628   -7.6503 C.2     1  UNL1        0.2454
     29 O         -26.9354   52.7643   -7.9801 O.2     1  UNL1       -0.2730
     30 H         -25.8822   51.5764   -5.9092 H       1  UNL1        0.1563
     31 C         -28.7959   48.1983   -4.1368 C.ar    1  UNL1        0.2465
     32 C         -29.3633   49.4705   -4.3020 C.ar    1  UNL1        0.0736
     33 C         -28.6874   50.4477   -5.0342 C.ar    1  UNL1        0.0406
     34 C         -27.4353   50.1511   -5.5818 C.ar    1  UNL1        0.1346
     35 N         -26.9162   48.9018   -5.4414 N.ar    1  UNL1       -0.2228
     36 C         -27.5590   47.9302   -4.7421 C.ar    1  UNL1        0.1691
     37 C         -30.0516   46.1681   -1.2562 C.2     1  UNL1        0.0842
     38 C         -30.7775   45.1880   -1.9434 C.2     1  UNL1        0.0115
     39 C         -30.8609   45.2265   -3.3316 C.2     1  UNL1        0.0755
     40 C         -30.2043   46.2370   -4.0315 C.2     1  UNL1        0.2905
     41 N         -29.4746   47.1848   -3.3689 N.am    1  UNL1       -0.0844
     42 C         -29.3910   47.1694   -1.9974 C.2     1  UNL1        0.4188
     43 O         -28.7318   48.0602   -1.3911 O.2     1  UNL1       -0.2139
     44 C         -31.2194   45.5209    0.8542 C.3     1  UNL1        0.0054
     45 C         -29.9466   46.1033    0.2483 C.3     1  UNL1        0.0361
@<TRIPOS>BOND
     1    44    45    1
     2    45    37    1
     3    37    38    2
     4    38    39    1
     5    39    40    2
     6    40    41    1
     7    41    31    1
     8    31    32   ar
     9    32    33   ar
    10    33    34   ar
    11    34    27    1
    12    27    28   am
    13    28    29    2
    14    28     1    1
    15     1     2    1
    16     2     3    1
    17     3     4    1
    18     3    12    1
    19    12    13   ar
    20    13    14   ar
    21    14    15   ar
    22    15    16    1
    23    15    17   ar
    24    17    18   ar
    25    18    19    1
    26     3     5    1
    27     5     6    1
    28     6     7   am
    29     7     8    2
    30     7     9   am
    31     9    20    1
    32    20    21   ar
    33    21    22   ar
    34    22    23   ar
    35    23    24    1
    36    23    25   ar
    37    25    26   ar
    38    34    35   ar
    39    35    36   ar
    40    41    42    1
    41    42    43    2
    42    42    37    1
    43    36    31   ar
    44     6     1    1
    45    26    20   ar
    46    18    12   ar
    47    27    30    1
    48     4    10    1
    49     9    11    1
