@<TRIPOS>MOLECULE
*****
 52 57 0 0 0
SMALL
GASTEIGER

@<TRIPOS>ATOM
      1 C           7.1722   76.4752   25.3615 C.ar    1  UNL1        0.0502
      2 C           6.0336   75.9027   25.9477 C.ar    1  UNL1        0.0148
      3 C           5.4272   76.5048   27.0505 C.ar    1  UNL1        0.0080
      4 C           5.9434   77.6951   27.5935 C.ar    1  UNL1        0.0808
      5 C           7.1077   78.2504   27.0241 C.ar    1  UNL1        0.1457
      6 F           7.6404   79.4031   27.5033 F       1  UNL1       -0.2040
      7 C           7.7096   77.6447   25.9164 C.ar    1  UNL1        0.0443
      8 N          11.0223   74.2091   24.1796 N.3     1  UNL1       -0.3053
      9 C          10.0495   75.2585   24.4905 C.3     1  UNL1        0.1480
     10 C           8.6178   74.7615   24.2564 C.3     1  UNL1        0.1273
     11 N           7.7436   75.9210   24.1603 N.pl3   1  UNL1       -0.3029
     12 C           7.9461   76.7331   22.9650 C.3     1  UNL1        0.1123
     13 C           9.4026   77.2265   22.8739 C.3     1  UNL1        0.1134
     14 N          10.3631   76.4798   23.7158 N.pl3   1  UNL1       -0.2935
     15 H          10.9319   73.9473   23.1707 H       1  UNL1        0.1203
     16 H          10.8001   73.3612   24.7508 H       1  UNL1        0.1203
     17 C          11.6588   77.0731   23.8990 C.ar    1  UNL1        0.0488
     18 C          12.7815   76.5229   23.2671 C.ar    1  UNL1        0.0145
     19 C          14.0419   77.1025   23.4396 C.ar    1  UNL1        0.0051
     20 C          14.1990   78.2366   24.2560 C.ar    1  UNL1        0.0715
     21 C          13.0630   78.8073   24.8557 C.ar    1  UNL1        0.0051
     22 C          11.8045   78.2244   24.6859 C.ar    1  UNL1        0.0145
     23 C          15.5489   78.8917   24.4035 C.3     1  UNL1        0.4186
     24 F          16.2022   78.4182   25.5282 F       1  UNL1       -0.1659
     25 F          16.3145   78.6129   23.2868 F       1  UNL1       -0.1659
     26 F          15.4144   80.2639   24.5272 F       1  UNL1       -0.1659
     27 C           5.2265   78.3830   28.6968 C.2     1  UNL1        0.2483
     28 O           4.0019   78.6589   28.5900 O.2     1  UNL1       -0.2701
     29 N           5.8959   78.6780   29.9266 N.am    1  UNL1       -0.2945
     30 H           6.6713   79.3786   29.9072 H       1  UNL1        0.1501
     31 C           5.8565   77.7057   31.0179 C.3     1  UNL1        0.1535
     32 C           5.1588   76.4546   30.5453 C.2     1  UNL1        0.2443
     33 O           3.9011   76.4391   30.4513 O.2     1  UNL1       -0.2730
     34 N           5.9176   75.2593   30.3075 N.am    1  UNL1       -0.2825
     35 H           6.8750   75.1980   30.7223 H       1  UNL1        0.1549
     36 C           5.3981   74.1007   29.6342 C.ar    1  UNL1        0.0535
     37 C           4.1710   73.5250   30.0044 C.ar    1  UNL1        0.0353
     38 C           3.6880   72.4206   29.2985 C.ar    1  UNL1        0.1002
     39 N           4.3968   71.9135   28.2554 N.ar    1  UNL1       -0.2422
     40 C           5.5791   72.4595   27.8662 C.ar    1  UNL1        0.1002
     41 C           6.0959   73.5671   28.5426 C.ar    1  UNL1        0.0353
     42 C           7.2809   77.4123   31.5226 C.3     1  UNL1        0.0569
     43 C           8.3160   77.9032   30.5490 C.ar    1  UNL1       -0.0017
     44 C           8.8894   79.1715   30.5302 C.ar    1  UNL1        0.0681
     45 N           9.8721   79.2329   29.6034 N.ar    1  UNL1       -0.3523
     46 C           9.9327   78.0120   29.0444 C.ar    1  UNL1        0.0563
     47 C          10.8170   77.5794   28.0572 C.ar    1  UNL1        0.0170
     48 C          10.7251   76.2417   27.6319 C.ar    1  UNL1        0.0015
     49 C           9.7622   75.3764   28.1961 C.ar    1  UNL1        0.0001
     50 C           8.8831   75.8399   29.1914 C.ar    1  UNL1        0.0012
     51 C           8.9993   77.1710   29.5956 C.ar    1  UNL1        0.0131
     52 H          10.4750   80.0572   29.3858 H       1  UNL1        0.1660
@<TRIPOS>BOND
     1     8     9    1
     2     9    10    1
     3    10    11    1
     4    11     1    1
     5     1     2   ar
     6     2     3   ar
     7     3     4   ar
     8     4    27    1
     9    27    28    2
    10    27    29   am
    11    29    31    1
    12    31    42    1
    13    42    43    1
    14    43    44   ar
    15    44    45   ar
    16    45    46   ar
    17    46    47   ar
    18    47    48   ar
    19    48    49   ar
    20    49    50   ar
    21    50    51   ar
    22    31    32    1
    23    32    33    2
    24    32    34   am
    25    34    36    1
    26    36    37   ar
    27    37    38   ar
    28    38    39   ar
    29    39    40   ar
    30    40    41   ar
    31     4     5   ar
    32     5     6    1
    33     5     7   ar
    34    11    12    1
    35    12    13    1
    36    13    14    1
    37    14    17    1
    38    17    18   ar
    39    18    19   ar
    40    19    20   ar
    41    20    23    1
    42    23    24    1
    43    23    25    1
    44    23    26    1
    45    20    21   ar
    46    21    22   ar
    47    14     9    1
    48    22    17   ar
    49     7     1   ar
    50    51    43   ar
    51    41    36   ar
    52    51    46   ar
    53     8    15    1
    54     8    16    1
    55    29    30    1
    56    45    52    1
    57    34    35    1
@<TRIPOS>MOLECULE
*****
 52 57 0 0 0
SMALL
GASTEIGER

@<TRIPOS>ATOM
      1 C           8.8280   74.9899   24.4079 C.ar    1  UNL1        0.0502
      2 C          10.1435   75.3249   24.7617 C.ar    1  UNL1        0.0148
      3 C          10.4801   75.5558   26.0958 C.ar    1  UNL1        0.0080
      4 C           9.5102   75.4561   27.1093 C.ar    1  UNL1        0.0808
      5 C           8.1814   75.1528   26.7478 C.ar    1  UNL1        0.1457
      6 F           7.2095   75.0344   27.6878 F       1  UNL1       -0.2040
      7 C           7.8500   74.9187   25.4094 C.ar    1  UNL1        0.0443
      8 N           7.3288   77.1943   20.6332 N.3     1  UNL1       -0.3053
      9 C           7.3937   76.4798   21.9097 C.3     1  UNL1        0.1480
     10 C           8.6722   75.6377   21.9988 C.3     1  UNL1        0.1273
     11 N           8.4922   74.6468   23.0493 N.pl3   1  UNL1       -0.3029
     12 C           7.5090   73.6129   22.7428 C.3     1  UNL1        0.1123
     13 C           6.1336   74.2343   22.4340 C.3     1  UNL1        0.1134
     14 N           6.1662   75.6748   22.0980 N.pl3   1  UNL1       -0.2935
     15 H           7.3124   76.4983   19.8524 H       1  UNL1        0.1203
     16 H           8.1925   77.7748   20.5257 H       1  UNL1        0.1203
     17 C           4.9066   76.3658   22.0939 C.ar    1  UNL1        0.0488
     18 C           4.3798   76.8778   23.2867 C.ar    1  UNL1        0.0145
     19 C           3.1571   77.5556   23.2834 C.ar    1  UNL1        0.0051
     20 C           2.4381   77.7225   22.0866 C.ar    1  UNL1        0.0715
     21 C           2.9905   77.2412   20.8869 C.ar    1  UNL1        0.0051
     22 C           4.2105   76.5601   20.8924 C.ar    1  UNL1        0.0145
     23 C           1.1439   78.4958   22.0733 C.3     1  UNL1        0.4186
     24 F           0.1095   77.7102   21.5949 F       1  UNL1       -0.1659
     25 F           0.8434   78.9020   23.3599 F       1  UNL1       -0.1659
     26 F           1.2506   79.6117   21.2611 F       1  UNL1       -0.1659
     27 C           9.9039   75.5970   28.5339 C.2     1  UNL1        0.2483
     28 O          10.9001   74.9730   28.9871 O.2     1  UNL1       -0.2701
     29 N           9.2034   76.4987   29.3963 N.am    1  UNL1       -0.2945
     30 H           8.2069   76.2832   29.6263 H       1  UNL1        0.1501
     31 C           9.6705   77.8782   29.5263 C.3     1  UNL1        0.1535
     32 C          10.1711   78.3626   28.1884 C.2     1  UNL1        0.2443
     33 O          11.3481   78.0896   27.8263 O.2     1  UNL1       -0.2730
     34 N           9.3458   79.2181   27.3833 N.am    1  UNL1       -0.2825
     35 H           8.5465   79.7047   27.8490 H       1  UNL1        0.1549
     36 C           9.6204   79.5346   26.0086 C.ar    1  UNL1        0.0535
     37 C           9.0982   78.7607   24.9585 C.ar    1  UNL1        0.0353
     38 C           9.3622   79.1266   23.6365 C.ar    1  UNL1        0.1002
     39 N          10.1116   80.2288   23.3696 N.ar    1  UNL1       -0.2422
     40 C          10.6169   81.0039   24.3652 C.ar    1  UNL1        0.1002
     41 C          10.3731   80.6757   25.7011 C.ar    1  UNL1        0.0353
     42 C           8.5448   78.7729   30.0759 C.3     1  UNL1        0.0569
     43 C           7.2480   78.0185   30.1745 C.ar    1  UNL1       -0.0017
     44 C           6.6445   77.5730   31.3470 C.ar    1  UNL1        0.0681
     45 N           5.4289   77.0433   31.0819 N.ar    1  UNL1       -0.3523
     46 C           5.2540   77.1604   29.7543 C.ar    1  UNL1        0.0563
     47 C           4.1342   76.7825   29.0147 C.ar    1  UNL1        0.0170
     48 C           4.1492   77.0233   27.6289 C.ar    1  UNL1        0.0015
     49 C           5.2703   77.6290   27.0203 C.ar    1  UNL1        0.0001
     50 C           6.3863   78.0007   27.7914 C.ar    1  UNL1        0.0012
     51 C           6.3421   77.7521   29.1644 C.ar    1  UNL1        0.0131
     52 H           4.7559   76.6462   31.7745 H       1  UNL1        0.1660
@<TRIPOS>BOND
     1     8     9    1
     2     9    10    1
     3    10    11    1
     4    11     1    1
     5     1     2   ar
     6     2     3   ar
     7     3     4   ar
     8     4    27    1
     9    27    28    2
    10    27    29   am
    11    29    31    1
    12    31    42    1
    13    42    43    1
    14    43    44   ar
    15    44    45   ar
    16    45    46   ar
    17    46    47   ar
    18    47    48   ar
    19    48    49   ar
    20    49    50   ar
    21    50    51   ar
    22    31    32    1
    23    32    33    2
    24    32    34   am
    25    34    36    1
    26    36    37   ar
    27    37    38   ar
    28    38    39   ar
    29    39    40   ar
    30    40    41   ar
    31     4     5   ar
    32     5     6    1
    33     5     7   ar
    34    11    12    1
    35    12    13    1
    36    13    14    1
    37    14    17    1
    38    17    18   ar
    39    18    19   ar
    40    19    20   ar
    41    20    23    1
    42    23    24    1
    43    23    25    1
    44    23    26    1
    45    20    21   ar
    46    21    22   ar
    47    14     9    1
    48    22    17   ar
    49     7     1   ar
    50    51    43   ar
    51    41    36   ar
    52    51    46   ar
    53     8    15    1
    54     8    16    1
    55    29    30    1
    56    45    52    1
    57    34    35    1
@<TRIPOS>MOLECULE
*****
 52 57 0 0 0
SMALL
GASTEIGER

@<TRIPOS>ATOM
      1 C           8.8498   77.9033   21.7703 C.ar    1  UNL1        0.0502
      2 C           7.6340   77.5687   22.3848 C.ar    1  UNL1        0.0148
      3 C           6.4236   77.8007   21.7311 C.ar    1  UNL1        0.0080
      4 C           6.3989   78.3719   20.4461 C.ar    1  UNL1        0.0808
      5 C           7.6201   78.7389   19.8443 C.ar    1  UNL1        0.1457
      6 F           7.6526   79.2837   18.6016 F       1  UNL1       -0.2040
      7 C           8.8309   78.5008   20.5025 C.ar    1  UNL1        0.0443
      8 N          10.6831   74.2822   23.9797 N.3     1  UNL1       -0.3053
      9 C           9.9628   75.5174   23.6641 C.3     1  UNL1        0.1480
     10 C          10.5472   76.1850   22.4134 C.3     1  UNL1        0.1273
     11 N          10.1077   77.5721   22.3903 N.pl3   1  UNL1       -0.3029
     12 C          10.6870   78.4071   23.4375 C.3     1  UNL1        0.1123
     13 C          10.3790   77.8334   24.8336 C.3     1  UNL1        0.1134
     14 N           9.9625   76.4138   24.8417 N.pl3   1  UNL1       -0.2935
     15 H          11.6853   74.5110   24.1739 H       1  UNL1        0.1203
     16 H          10.6553   73.6513   23.1456 H       1  UNL1        0.1203
     17 C           9.3838   75.9173   26.0593 C.ar    1  UNL1        0.0488
     18 C          10.1869   75.7112   27.1885 C.ar    1  UNL1        0.0145
     19 C           9.6243   75.2337   28.3759 C.ar    1  UNL1        0.0051
     20 C           8.2498   74.9457   28.4477 C.ar    1  UNL1        0.0715
     21 C           7.4423   75.1916   27.3237 C.ar    1  UNL1        0.0051
     22 C           8.0068   75.6648   26.1363 C.ar    1  UNL1        0.0145
     23 C           7.6331   74.4777   29.7414 C.3     1  UNL1        0.4186
     24 F           6.4657   73.7739   29.5004 F       1  UNL1       -0.1659
     25 F           8.5273   73.6550   30.4004 F       1  UNL1       -0.1659
     26 F           7.3280   75.5556   30.5545 F       1  UNL1       -0.1659
     27 C           5.1126   78.5130   19.7180 C.2     1  UNL1        0.2483
     28 O           5.0694   79.0981   18.6031 O.2     1  UNL1       -0.2701
     29 N           3.9156   77.9239   20.2353 N.am    1  UNL1       -0.2945
     30 H           3.5267   78.3057   21.1272 H       1  UNL1        0.1501
     31 C           3.5534   76.5642   19.8377 C.3     1  UNL1        0.1535
     32 C           4.7073   75.6367   20.1269 C.2     1  UNL1        0.2443
     33 O           5.5944   75.4519   19.2495 O.2     1  UNL1       -0.2730
     34 N           4.7345   74.8900   21.3528 N.am    1  UNL1       -0.2825
     35 H           3.8402   74.7923   21.8850 H       1  UNL1        0.1549
     36 C           5.8860   74.1749   21.8304 C.ar    1  UNL1        0.0535
     37 C           6.8500   73.6613   20.9466 C.ar    1  UNL1        0.0353
     38 C           7.9715   73.0037   21.4576 C.ar    1  UNL1        0.1002
     39 N           8.1320   72.8704   22.8008 N.ar    1  UNL1       -0.2422
     40 C           7.2230   73.3704   23.6790 C.ar    1  UNL1        0.1002
     41 C           6.0894   74.0385   23.2100 C.ar    1  UNL1        0.0353
     42 C           2.2674   76.1222   20.5592 C.3     1  UNL1        0.0569
     43 C           1.9210   77.0620   21.6805 C.ar    1  UNL1       -0.0017
     44 C           0.8905   77.9978   21.6785 C.ar    1  UNL1        0.0681
     45 N           0.7828   78.5855   22.8916 N.ar    1  UNL1       -0.3523
     46 C           1.7280   78.0215   23.6632 C.ar    1  UNL1        0.0563
     47 C           1.9834   78.2809   25.0090 C.ar    1  UNL1        0.0170
     48 C           3.0094   77.5512   25.6364 C.ar    1  UNL1        0.0015
     49 C           3.7488   76.5899   24.9129 C.ar    1  UNL1        0.0001
     50 C           3.4686   76.3483   23.5559 C.ar    1  UNL1        0.0012
     51 C           2.4434   77.0853   22.9605 C.ar    1  UNL1        0.0131
     52 H           0.0888   79.3129   23.1740 H       1  UNL1        0.1660
@<TRIPOS>BOND
     1     8     9    1
     2     9    10    1
     3    10    11    1
     4    11     1    1
     5     1     2   ar
     6     2     3   ar
     7     3     4   ar
     8     4    27    1
     9    27    28    2
    10    27    29   am
    11    29    31    1
    12    31    42    1
    13    42    43    1
    14    43    44   ar
    15    44    45   ar
    16    45    46   ar
    17    46    47   ar
    18    47    48   ar
    19    48    49   ar
    20    49    50   ar
    21    50    51   ar
    22    31    32    1
    23    32    33    2
    24    32    34   am
    25    34    36    1
    26    36    37   ar
    27    37    38   ar
    28    38    39   ar
    29    39    40   ar
    30    40    41   ar
    31     4     5   ar
    32     5     6    1
    33     5     7   ar
    34    11    12    1
    35    12    13    1
    36    13    14    1
    37    14    17    1
    38    17    18   ar
    39    18    19   ar
    40    19    20   ar
    41    20    23    1
    42    23    24    1
    43    23    25    1
    44    23    26    1
    45    20    21   ar
    46    21    22   ar
    47    14     9    1
    48    22    17   ar
    49     7     1   ar
    50    51    43   ar
    51    41    36   ar
    52    51    46   ar
    53     8    15    1
    54     8    16    1
    55    29    30    1
    56    45    52    1
    57    34    35    1
@<TRIPOS>MOLECULE
*****
 52 57 0 0 0
SMALL
GASTEIGER

@<TRIPOS>ATOM
      1 C          10.2639   78.7369   24.0648 C.ar    1  UNL1        0.0502
      2 C           9.5665   79.8498   23.5718 C.ar    1  UNL1        0.0148
      3 C           8.8402   79.7600   22.3840 C.ar    1  UNL1        0.0080
      4 C           8.7919   78.5550   21.6606 C.ar    1  UNL1        0.0808
      5 C           9.5212   77.4474   22.1398 C.ar    1  UNL1        0.1457
      6 F           9.4999   76.2585   21.4854 F       1  UNL1       -0.2040
      7 C          10.2449   77.5417   23.3329 C.ar    1  UNL1        0.0443
      8 N          10.5525   76.0832   27.8370 N.3     1  UNL1       -0.3053
      9 C          10.1208   77.0649   26.8400 C.3     1  UNL1        0.1480
     10 C          11.3087   77.5447   25.9972 C.3     1  UNL1        0.1273
     11 N          10.9294   78.7874   25.3418 N.pl3   1  UNL1       -0.3029
     12 C          10.7643   79.9213   26.2455 C.3     1  UNL1        0.1123
     13 C           9.7129   79.6144   27.3288 C.3     1  UNL1        0.1134
     14 N           9.4080   78.1776   27.5064 N.pl3   1  UNL1       -0.2935
     15 H          11.2452   76.5312   28.4803 H       1  UNL1        0.1203
     16 H          11.0345   75.2936   27.3483 H       1  UNL1        0.1203
     17 C           8.2395   77.8558   28.2780 C.ar    1  UNL1        0.0488
     18 C           7.0368   78.5382   28.0536 C.ar    1  UNL1        0.0145
     19 C           5.8975   78.2222   28.7994 C.ar    1  UNL1        0.0051
     20 C           5.9477   77.2244   29.7889 C.ar    1  UNL1        0.0715
     21 C           7.1464   76.5162   29.9824 C.ar    1  UNL1        0.0051
     22 C           8.2855   76.8361   29.2392 C.ar    1  UNL1        0.0145
     23 C           4.7076   76.8486   30.5597 C.3     1  UNL1        0.4186
     24 F           3.9300   75.9630   29.8337 F       1  UNL1       -0.1659
     25 F           5.0758   76.2527   31.7514 F       1  UNL1       -0.1659
     26 F           3.9443   77.9705   30.8331 F       1  UNL1       -0.1659
     27 C           7.9285   78.4420   20.4580 C.2     1  UNL1        0.2483
     28 O           8.3829   78.7182   19.3159 O.2     1  UNL1       -0.2701
     29 N           6.5899   77.9484   20.5674 N.am    1  UNL1       -0.2945
     30 H           5.8949   78.5272   21.0912 H       1  UNL1        0.1501
     31 C           6.3369   76.5163   20.4151 C.3     1  UNL1        0.1535
     32 C           6.1250   75.9005   21.7757 C.2     1  UNL1        0.2443
     33 O           6.0955   74.6451   21.8948 O.2     1  UNL1       -0.2730
     34 N           5.8531   76.7419   22.9067 N.am    1  UNL1       -0.2825
     35 H           5.5381   77.7213   22.7222 H       1  UNL1        0.1549
     36 C           5.8761   76.2854   24.2693 C.ar    1  UNL1        0.0535
     37 C           4.7286   76.3321   25.0788 C.ar    1  UNL1        0.0353
     38 C           4.7883   75.8446   26.3865 C.ar    1  UNL1        0.1002
     39 N           5.9467   75.3208   26.8678 N.ar    1  UNL1       -0.2422
     40 C           7.0675   75.2494   26.1023 C.ar    1  UNL1        0.1002
     41 C           7.0496   75.7221   24.7878 C.ar    1  UNL1        0.0353
     42 C           5.1319   76.2834   19.4860 C.3     1  UNL1        0.0569
     43 C           3.8433   76.2594   20.2602 C.ar    1  UNL1       -0.0017
     44 C           3.0778   75.1324   20.5455 C.ar    1  UNL1        0.0681
     45 N           2.0515   75.4527   21.3657 N.ar    1  UNL1       -0.3523
     46 C           2.1681   76.7692   21.6104 C.ar    1  UNL1        0.0563
     47 C           1.3556   77.5495   22.4318 C.ar    1  UNL1        0.0170
     48 C           1.6757   78.9121   22.5707 C.ar    1  UNL1        0.0015
     49 C           2.7878   79.4582   21.8929 C.ar    1  UNL1        0.0001
     50 C           3.5908   78.6470   21.0711 C.ar    1  UNL1        0.0012
     51 C           3.2507   77.2981   20.9544 C.ar    1  UNL1        0.0131
     52 H           1.3305   74.8011   21.7479 H       1  UNL1        0.1660
@<TRIPOS>BOND
     1     8     9    1
     2     9    10    1
     3    10    11    1
     4    11     1    1
     5     1     2   ar
     6     2     3   ar
     7     3     4   ar
     8     4    27    1
     9    27    28    2
    10    27    29   am
    11    29    31    1
    12    31    42    1
    13    42    43    1
    14    43    44   ar
    15    44    45   ar
    16    45    46   ar
    17    46    47   ar
    18    47    48   ar
    19    48    49   ar
    20    49    50   ar
    21    50    51   ar
    22    31    32    1
    23    32    33    2
    24    32    34   am
    25    34    36    1
    26    36    37   ar
    27    37    38   ar
    28    38    39   ar
    29    39    40   ar
    30    40    41   ar
    31     4     5   ar
    32     5     6    1
    33     5     7   ar
    34    11    12    1
    35    12    13    1
    36    13    14    1
    37    14    17    1
    38    17    18   ar
    39    18    19   ar
    40    19    20   ar
    41    20    23    1
    42    23    24    1
    43    23    25    1
    44    23    26    1
    45    20    21   ar
    46    21    22   ar
    47    14     9    1
    48    22    17   ar
    49     7     1   ar
    50    51    43   ar
    51    41    36   ar
    52    51    46   ar
    53     8    15    1
    54     8    16    1
    55    29    30    1
    56    45    52    1
    57    34    35    1
@<TRIPOS>MOLECULE
*****
 52 57 0 0 0
SMALL
GASTEIGER

@<TRIPOS>ATOM
      1 C          10.0316   75.4805   24.4224 C.ar    1  UNL1        0.0502
      2 C          11.0181   76.1285   25.1805 C.ar    1  UNL1        0.0148
      3 C          10.8515   76.3063   26.5541 C.ar    1  UNL1        0.0080
      4 C           9.6951   75.8393   27.2041 C.ar    1  UNL1        0.0808
      5 C           8.6894   75.2187   26.4348 C.ar    1  UNL1        0.1457
      6 F           7.5590   74.7408   27.0144 F       1  UNL1       -0.2040
      7 C           8.8631   75.0398   25.0586 C.ar    1  UNL1        0.0443
      8 N           8.5029   77.1107   20.3775 N.3     1  UNL1       -0.3053
      9 C           8.6394   76.3640   21.6297 C.3     1  UNL1        0.1480
     10 C          10.1104   76.2743   22.0536 C.3     1  UNL1        0.1273
     11 N          10.2394   75.1981   23.0247 N.pl3   1  UNL1       -0.3029
     12 C          10.0347   73.8615   22.4763 C.3     1  UNL1        0.1123
     13 C           8.6480   73.7428   21.8160 C.3     1  UNL1        0.1134
     14 N           8.0029   75.0348   21.4939 N.pl3   1  UNL1       -0.2935
     15 H           9.0270   76.6108   19.6226 H       1  UNL1        0.1203
     16 H           8.9379   78.0547   20.4970 H       1  UNL1        0.1203
     17 C           6.6067   74.9936   21.1576 C.ar    1  UNL1        0.0488
     18 C           5.6786   75.7246   21.9105 C.ar    1  UNL1        0.0145
     19 C           4.3205   75.6902   21.5810 C.ar    1  UNL1        0.0051
     20 C           3.8694   74.9150   20.4980 C.ar    1  UNL1        0.0715
     21 C           4.8099   74.2151   19.7224 C.ar    1  UNL1        0.0051
     22 C           6.1665   74.2469   20.0556 C.ar    1  UNL1        0.0145
     23 C           2.4122   74.9159   20.1112 C.3     1  UNL1        0.4186
     24 F           2.2714   74.9581   18.7348 F       1  UNL1       -0.1659
     25 F           1.8135   73.7659   20.5905 F       1  UNL1       -0.1659
     26 F           1.7662   76.0174   20.6458 F       1  UNL1       -0.1659
     27 C           9.5794   75.9377   28.6810 C.2     1  UNL1        0.2483
     28 O          10.5062   75.5191   29.4247 O.2     1  UNL1       -0.2701
     29 N           8.4473   76.5747   29.2811 N.am    1  UNL1       -0.2945
     30 H           7.5134   76.1179   29.1739 H       1  UNL1        0.1501
     31 C           8.4981   78.0069   29.5712 C.3     1  UNL1        0.1535
     32 C           9.3630   78.6929   28.5432 C.2     1  UNL1        0.2443
     33 O          10.5947   78.8475   28.7669 O.2     1  UNL1       -0.2730
     34 N           8.7639   79.2584   27.3675 N.am    1  UNL1       -0.2825
     35 H           7.7324   79.4266   27.3777 H       1  UNL1        0.1549
     36 C           9.5106   79.7122   26.2264 C.ar    1  UNL1        0.0535
     37 C           9.3119   79.1574   24.9509 C.ar    1  UNL1        0.0353
     38 C          10.0349   79.6543   23.8638 C.ar    1  UNL1        0.1002
     39 N          10.9173   80.6734   24.0389 N.ar    1  UNL1       -0.2422
     40 C          11.1185   81.2387   25.2584 C.ar    1  UNL1        0.1002
     41 C          10.4130   80.7744   26.3712 C.ar    1  UNL1        0.0353
     42 C           7.0758   78.5945   29.6084 C.3     1  UNL1        0.0569
     43 C           6.0619   77.5992   29.1165 C.ar    1  UNL1       -0.0017
     44 C           5.1198   76.9337   29.8957 C.ar    1  UNL1        0.0681
     45 N           4.2869   76.2090   29.1149 N.ar    1  UNL1       -0.3523
     46 C           4.6869   76.4195   27.8490 C.ar    1  UNL1        0.0563
     47 C           4.1116   75.9078   26.6867 C.ar    1  UNL1        0.0170
     48 C           4.6763   76.2811   25.4537 C.ar    1  UNL1        0.0015
     49 C           5.7907   77.1474   25.4105 C.ar    1  UNL1        0.0001
     50 C           6.3503   77.6493   26.5993 C.ar    1  UNL1        0.0012
     51 C           5.7674   77.2638   27.8078 C.ar    1  UNL1        0.0131
     52 H           3.4826   75.6243   29.4337 H       1  UNL1        0.1660
@<TRIPOS>BOND
     1     8     9    1
     2     9    10    1
     3    10    11    1
     4    11     1    1
     5     1     2   ar
     6     2     3   ar
     7     3     4   ar
     8     4    27    1
     9    27    28    2
    10    27    29   am
    11    29    31    1
    12    31    42    1
    13    42    43    1
    14    43    44   ar
    15    44    45   ar
    16    45    46   ar
    17    46    47   ar
    18    47    48   ar
    19    48    49   ar
    20    49    50   ar
    21    50    51   ar
    22    31    32    1
    23    32    33    2
    24    32    34   am
    25    34    36    1
    26    36    37   ar
    27    37    38   ar
    28    38    39   ar
    29    39    40   ar
    30    40    41   ar
    31     4     5   ar
    32     5     6    1
    33     5     7   ar
    34    11    12    1
    35    12    13    1
    36    13    14    1
    37    14    17    1
    38    17    18   ar
    39    18    19   ar
    40    19    20   ar
    41    20    23    1
    42    23    24    1
    43    23    25    1
    44    23    26    1
    45    20    21   ar
    46    21    22   ar
    47    14     9    1
    48    22    17   ar
    49     7     1   ar
    50    51    43   ar
    51    41    36   ar
    52    51    46   ar
    53     8    15    1
    54     8    16    1
    55    29    30    1
    56    45    52    1
    57    34    35    1
@<TRIPOS>MOLECULE
*****
 52 57 0 0 0
SMALL
GASTEIGER

@<TRIPOS>ATOM
      1 C           5.8694   74.6528   25.7967 C.ar    1  UNL1        0.0502
      2 C           5.0756   75.5256   25.0376 C.ar    1  UNL1        0.0148
      3 C           5.2893   75.6638   23.6659 C.ar    1  UNL1        0.0080
      4 C           6.3010   74.9318   23.0189 C.ar    1  UNL1        0.0808
      5 C           7.1199   74.0809   23.7894 C.ar    1  UNL1        0.1457
      6 F           8.1032   73.3444   23.2126 F       1  UNL1       -0.2040
      7 C           6.8991   73.9433   25.1636 C.ar    1  UNL1        0.0443
      8 N           4.2722   77.1017   29.3753 N.3     1  UNL1       -0.3053
      9 C           5.1408   76.4930   28.3659 C.3     1  UNL1        0.1480
     10 C           4.5347   75.1855   27.8417 C.3     1  UNL1        0.1273
     11 N           5.5900   74.4231   27.1915 N.pl3   1  UNL1       -0.3029
     12 C           6.6076   73.9038   28.0994 C.3     1  UNL1        0.1123
     13 C           7.2673   75.0439   28.8983 C.3     1  UNL1        0.1134
     14 N           6.5015   76.3096   28.9185 N.pl3   1  UNL1       -0.2935
     15 H           4.1740   76.4443   30.1832 H       1  UNL1        0.1203
     16 H           3.3216   77.2446   28.9625 H       1  UNL1        0.1203
     17 C           7.1954   77.4771   29.3870 C.ar    1  UNL1        0.0488
     18 C           7.9646   77.4179   30.5563 C.ar    1  UNL1        0.0145
     19 C           8.6453   78.5514   31.0103 C.ar    1  UNL1        0.0051
     20 C           8.5579   79.7650   30.3054 C.ar    1  UNL1        0.0715
     21 C           7.8167   79.8080   29.1118 C.ar    1  UNL1        0.0051
     22 C           7.1334   78.6754   28.6616 C.ar    1  UNL1        0.0145
     23 C           9.3307   80.9747   30.7665 C.3     1  UNL1        0.4186
     24 F           8.5020   82.0798   30.8555 F       1  UNL1       -0.1659
     25 F           9.8762   80.7191   32.0106 F       1  UNL1       -0.1659
     26 F          10.3508   81.2696   29.8785 F       1  UNL1       -0.1659
     27 C           6.4466   75.0060   21.5432 C.2     1  UNL1        0.2483
     28 O           5.5878   74.4772   20.7882 O.2     1  UNL1       -0.2701
     29 N           7.5243   75.7406   20.9547 N.am    1  UNL1       -0.2945
     30 H           8.4964   75.3842   21.0972 H       1  UNL1        0.1501
     31 C           7.3364   77.1528   20.6252 C.3     1  UNL1        0.1535
     32 C           5.8640   77.4329   20.4554 C.2     1  UNL1        0.2443
     33 O           5.3249   77.2751   19.3261 O.2     1  UNL1       -0.2730
     34 N           5.1091   77.9770   21.5486 N.am    1  UNL1       -0.2825
     35 H           5.6374   78.4194   22.3346 H       1  UNL1        0.1549
     36 C           3.6741   78.0530   21.5726 C.ar    1  UNL1        0.0535
     37 C           2.8748   76.9233   21.3291 C.ar    1  UNL1        0.0353
     38 C           1.4842   77.0362   21.3978 C.ar    1  UNL1        0.1002
     39 N           0.9103   78.2290   21.7069 N.ar    1  UNL1       -0.2422
     40 C           1.6593   79.3342   21.9616 C.ar    1  UNL1        0.1002
     41 C           3.0534   79.2637   21.9076 C.ar    1  UNL1        0.0353
     42 C           7.9682   78.0424   21.7110 C.3     1  UNL1        0.0569
     43 C           9.0430   77.3062   22.4616 C.ar    1  UNL1       -0.0017
     44 C          10.2275   76.8108   21.9239 C.ar    1  UNL1        0.0681
     45 N          11.0204   76.3164   22.9013 N.ar    1  UNL1       -0.3523
     46 C          10.3529   76.5052   24.0526 C.ar    1  UNL1        0.0563
     47 C          10.7838   76.1854   25.3395 C.ar    1  UNL1        0.0170
     48 C           9.9324   76.4974   26.4148 C.ar    1  UNL1        0.0015
     49 C           8.6837   77.1147   26.1827 C.ar    1  UNL1        0.0001
     50 C           8.2750   77.4268   24.8735 C.ar    1  UNL1        0.0012
     51 C           9.1415   77.1081   23.8265 C.ar    1  UNL1        0.0131
     52 H          11.9688   75.8954   22.7834 H       1  UNL1        0.1660
@<TRIPOS>BOND
     1     8     9    1
     2     9    10    1
     3    10    11    1
     4    11     1    1
     5     1     2   ar
     6     2     3   ar
     7     3     4   ar
     8     4    27    1
     9    27    28    2
    10    27    29   am
    11    29    31    1
    12    31    42    1
    13    42    43    1
    14    43    44   ar
    15    44    45   ar
    16    45    46   ar
    17    46    47   ar
    18    47    48   ar
    19    48    49   ar
    20    49    50   ar
    21    50    51   ar
    22    31    32    1
    23    32    33    2
    24    32    34   am
    25    34    36    1
    26    36    37   ar
    27    37    38   ar
    28    38    39   ar
    29    39    40   ar
    30    40    41   ar
    31     4     5   ar
    32     5     6    1
    33     5     7   ar
    34    11    12    1
    35    12    13    1
    36    13    14    1
    37    14    17    1
    38    17    18   ar
    39    18    19   ar
    40    19    20   ar
    41    20    23    1
    42    23    24    1
    43    23    25    1
    44    23    26    1
    45    20    21   ar
    46    21    22   ar
    47    14     9    1
    48    22    17   ar
    49     7     1   ar
    50    51    43   ar
    51    41    36   ar
    52    51    46   ar
    53     8    15    1
    54     8    16    1
    55    29    30    1
    56    45    52    1
    57    34    35    1
@<TRIPOS>MOLECULE
*****
 52 57 0 0 0
SMALL
GASTEIGER

@<TRIPOS>ATOM
      1 C          10.6308   78.5838   25.6061 C.ar    1  UNL1        0.0502
      2 C           9.9809   79.6738   26.2039 C.ar    1  UNL1        0.0148
      3 C           9.6190   79.6299   27.5505 C.ar    1  UNL1        0.0080
      4 C           9.8992   78.4955   28.3332 C.ar    1  UNL1        0.0808
      5 C          10.5218   77.3877   27.7221 C.ar    1  UNL1        0.1457
      6 F          10.8238   76.2728   28.4348 F       1  UNL1       -0.2040
      7 C          10.8858   77.4384   26.3726 C.ar    1  UNL1        0.0443
      8 N           8.8054   79.3343   21.4277 N.3     1  UNL1       -0.3053
      9 C           9.2690   78.7037   22.6652 C.3     1  UNL1        0.1480
     10 C          10.4069   79.5145   23.2972 C.3     1  UNL1        0.1273
     11 N          11.1027   78.6588   24.2467 N.pl3   1  UNL1       -0.3029
     12 C          11.8554   77.5671   23.6375 C.3     1  UNL1        0.1123
     13 C          10.9376   76.6768   22.7783 C.3     1  UNL1        0.1134
     14 N           9.6488   77.2979   22.4011 N.pl3   1  UNL1       -0.2935
     15 H           9.5965   79.3682   20.7440 H       1  UNL1        0.1203
     16 H           8.5204   80.3193   21.6356 H       1  UNL1        0.1203
     17 C           8.6435   76.4239   21.8631 C.ar    1  UNL1        0.0488
     18 C           7.5283   76.9550   21.2022 C.ar    1  UNL1        0.0145
     19 C           6.5521   76.1057   20.6729 C.ar    1  UNL1        0.0051
     20 C           6.6728   74.7111   20.8062 C.ar    1  UNL1        0.0715
     21 C           7.8133   74.1827   21.4356 C.ar    1  UNL1        0.0051
     22 C           8.7860   75.0330   21.9679 C.ar    1  UNL1        0.0145
     23 C           5.6464   73.7925   20.1932 C.3     1  UNL1        0.4186
     24 F           4.8285   74.4871   19.3187 F       1  UNL1       -0.1659
     25 F           6.2926   72.7849   19.5019 F       1  UNL1       -0.1659
     26 F           4.8495   73.2276   21.1741 F       1  UNL1       -0.1659
     27 C           9.6072   78.5041   29.7889 C.2     1  UNL1        0.2483
     28 O          10.2636   79.2445   30.5687 O.2     1  UNL1       -0.2701
     29 N           8.5288   77.7272   30.3191 N.am    1  UNL1       -0.2945
     30 H           8.6065   76.6859   30.2754 H       1  UNL1        0.1501
     31 C           7.2004   78.3269   30.4362 C.3     1  UNL1        0.1535
     32 C           6.4933   78.2345   29.1069 C.2     1  UNL1        0.2443
     33 O           5.6542   79.1190   28.7835 O.2     1  UNL1       -0.2730
     34 N           6.6988   77.0892   28.2660 N.am    1  UNL1       -0.2825
     35 H           7.1068   76.2308   28.7010 H       1  UNL1        0.1549
     36 C           6.2721   77.0140   26.8957 C.ar    1  UNL1        0.0535
     37 C           7.1965   77.0199   25.8375 C.ar    1  UNL1        0.0353
     38 C           6.7383   76.9092   24.5225 C.ar    1  UNL1        0.1002
     39 N           5.4080   76.7875   24.2708 N.ar    1  UNL1       -0.2422
     40 C           4.4931   76.7639   25.2756 C.ar    1  UNL1        0.1002
     41 C           4.9092   76.8679   26.6051 C.ar    1  UNL1        0.0353
     42 C           6.4024   77.6405   31.5594 C.3     1  UNL1        0.0569
     43 C           5.3169   76.7639   30.9994 C.ar    1  UNL1       -0.0017
     44 C           3.9614   77.0743   30.9369 C.ar    1  UNL1        0.0681
     45 N           3.2873   76.1168   30.2607 N.ar    1  UNL1       -0.3523
     46 C           4.2060   75.2101   29.8855 C.ar    1  UNL1        0.0563
     47 C           3.9931   74.0551   29.1343 C.ar    1  UNL1        0.0170
     48 C           5.1085   73.2548   28.8277 C.ar    1  UNL1        0.0015
     49 C           6.3969   73.6225   29.2740 C.ar    1  UNL1        0.0001
     50 C           6.5823   74.7940   30.0298 C.ar    1  UNL1        0.0012
     51 C           5.4578   75.5699   30.3164 C.ar    1  UNL1        0.0131
     52 H           2.2639   76.1010   30.0539 H       1  UNL1        0.1660
@<TRIPOS>BOND
     1     8     9    1
     2     9    10    1
     3    10    11    1
     4    11     1    1
     5     1     2   ar
     6     2     3   ar
     7     3     4   ar
     8     4    27    1
     9    27    28    2
    10    27    29   am
    11    29    31    1
    12    31    42    1
    13    42    43    1
    14    43    44   ar
    15    44    45   ar
    16    45    46   ar
    17    46    47   ar
    18    47    48   ar
    19    48    49   ar
    20    49    50   ar
    21    50    51   ar
    22    31    32    1
    23    32    33    2
    24    32    34   am
    25    34    36    1
    26    36    37   ar
    27    37    38   ar
    28    38    39   ar
    29    39    40   ar
    30    40    41   ar
    31     4     5   ar
    32     5     6    1
    33     5     7   ar
    34    11    12    1
    35    12    13    1
    36    13    14    1
    37    14    17    1
    38    17    18   ar
    39    18    19   ar
    40    19    20   ar
    41    20    23    1
    42    23    24    1
    43    23    25    1
    44    23    26    1
    45    20    21   ar
    46    21    22   ar
    47    14     9    1
    48    22    17   ar
    49     7     1   ar
    50    51    43   ar
    51    41    36   ar
    52    51    46   ar
    53     8    15    1
    54     8    16    1
    55    29    30    1
    56    45    52    1
    57    34    35    1
@<TRIPOS>MOLECULE
*****
 52 57 0 0 0
SMALL
GASTEIGER

@<TRIPOS>ATOM
      1 C          10.0585   76.7902   23.3129 C.ar    1  UNL1        0.0502
      2 C           9.2202   77.1674   22.2533 C.ar    1  UNL1        0.0148
      3 C           8.5100   76.2044   21.5360 C.ar    1  UNL1        0.0080
      4 C           8.6192   74.8405   21.8613 C.ar    1  UNL1        0.0808
      5 C           9.4886   74.4604   22.9044 C.ar    1  UNL1        0.1457
      6 F           9.6225   73.1588   23.2652 F       1  UNL1       -0.2040
      7 C          10.1955   75.4301   23.6227 C.ar    1  UNL1        0.0443
      8 N          11.6231   77.1135   27.6491 N.3     1  UNL1       -0.3053
      9 C          10.7708   77.1302   26.4585 C.3     1  UNL1        0.1480
     10 C          11.6070   77.3531   25.1925 C.3     1  UNL1        0.1273
     11 N          10.7138   77.7824   24.1268 N.pl3   1  UNL1       -0.3029
     12 C          10.1466   79.1140   24.3134 C.3     1  UNL1        0.1123
     13 C           9.3767   79.2037   25.6448 C.3     1  UNL1        0.1134
     14 N           9.7011   78.1400   26.6206 N.pl3   1  UNL1       -0.2935
     15 H          12.1042   78.0382   27.7382 H       1  UNL1        0.1203
     16 H          12.3597   76.3804   27.5281 H       1  UNL1        0.1203
     17 C           8.8136   77.9994   27.7417 C.ar    1  UNL1        0.0488
     18 C           7.8073   78.9475   27.9671 C.ar    1  UNL1        0.0145
     19 C           6.9392   78.8090   29.0541 C.ar    1  UNL1        0.0051
     20 C           7.0720   77.7236   29.9382 C.ar    1  UNL1        0.0715
     21 C           8.0583   76.7546   29.6845 C.ar    1  UNL1        0.0051
     22 C           8.9279   76.8967   28.6001 C.ar    1  UNL1        0.0145
     23 C           6.1060   77.5462   31.0821 C.3     1  UNL1        0.4186
     24 F           6.2267   76.2820   31.6328 F       1  UNL1       -0.1659
     25 F           6.3756   78.4896   32.0558 F       1  UNL1       -0.1659
     26 F           4.8013   77.7060   30.6481 F       1  UNL1       -0.1659
     27 C           7.7762   73.8380   21.1624 C.2     1  UNL1        0.2483
     28 O           7.8250   72.6221   21.4885 O.2     1  UNL1       -0.2701
     29 N           6.8424   74.2462   20.1580 N.am    1  UNL1       -0.2945
     30 H           7.2210   74.6430   19.2683 H       1  UNL1        0.1501
     31 C           5.4694   74.5709   20.5421 C.3     1  UNL1        0.1535
     32 C           5.3675   74.6029   22.0467 C.2     1  UNL1        0.2443
     33 O           5.1062   73.5422   22.6773 O.2     1  UNL1       -0.2730
     34 N           5.4629   75.8546   22.7433 N.am    1  UNL1       -0.2825
     35 H           5.3254   76.7320   22.1920 H       1  UNL1        0.1549
     36 C           5.6203   75.9697   24.1672 C.ar    1  UNL1        0.0535
     37 C           4.7603   76.7693   24.9387 C.ar    1  UNL1        0.0353
     38 C           4.9288   76.8232   26.3244 C.ar    1  UNL1        0.1002
     39 N           5.9125   76.0995   26.9214 N.ar    1  UNL1       -0.2422
     40 C           6.7490   75.3063   26.2015 C.ar    1  UNL1        0.1002
     41 C           6.6123   75.2206   24.8138 C.ar    1  UNL1        0.0353
     42 C           5.0403   75.9071   19.9095 C.3     1  UNL1        0.0569
     43 C           3.5858   76.1890   20.1652 C.ar    1  UNL1       -0.0017
     44 C           2.5145   75.3865   19.7830 C.ar    1  UNL1        0.0681
     45 N           1.3563   75.8743   20.2821 N.ar    1  UNL1       -0.3523
     46 C           1.6871   76.9709   20.9854 C.ar    1  UNL1        0.0563
     47 C           0.8307   77.7969   21.7121 C.ar    1  UNL1        0.0170
     48 C           1.3951   78.8839   22.4039 C.ar    1  UNL1        0.0015
     49 C           2.7868   79.1184   22.3542 C.ar    1  UNL1        0.0001
     50 C           3.6272   78.2680   21.6135 C.ar    1  UNL1        0.0012
     51 C           3.0397   77.1960   20.9395 C.ar    1  UNL1        0.0131
     52 H           0.4030   75.4652   20.1622 H       1  UNL1        0.1660
@<TRIPOS>BOND
     1     8     9    1
     2     9    10    1
     3    10    11    1
     4    11     1    1
     5     1     2   ar
     6     2     3   ar
     7     3     4   ar
     8     4    27    1
     9    27    28    2
    10    27    29   am
    11    29    31    1
    12    31    42    1
    13    42    43    1
    14    43    44   ar
    15    44    45   ar
    16    45    46   ar
    17    46    47   ar
    18    47    48   ar
    19    48    49   ar
    20    49    50   ar
    21    50    51   ar
    22    31    32    1
    23    32    33    2
    24    32    34   am
    25    34    36    1
    26    36    37   ar
    27    37    38   ar
    28    38    39   ar
    29    39    40   ar
    30    40    41   ar
    31     4     5   ar
    32     5     6    1
    33     5     7   ar
    34    11    12    1
    35    12    13    1
    36    13    14    1
    37    14    17    1
    38    17    18   ar
    39    18    19   ar
    40    19    20   ar
    41    20    23    1
    42    23    24    1
    43    23    25    1
    44    23    26    1
    45    20    21   ar
    46    21    22   ar
    47    14     9    1
    48    22    17   ar
    49     7     1   ar
    50    51    43   ar
    51    41    36   ar
    52    51    46   ar
    53     8    15    1
    54     8    16    1
    55    29    30    1
    56    45    52    1
    57    34    35    1
@<TRIPOS>MOLECULE
*****
 52 57 0 0 0
SMALL
GASTEIGER

@<TRIPOS>ATOM
      1 C           8.3529   78.1615   22.0547 C.ar    1  UNL1        0.0502
      2 C           7.0670   77.8021   22.4849 C.ar    1  UNL1        0.0148
      3 C           5.9910   77.8282   21.5972 C.ar    1  UNL1        0.0080
      4 C           6.1745   78.2129   20.2569 C.ar    1  UNL1        0.0808
      5 C           7.4611   78.6064   19.8350 C.ar    1  UNL1        0.1457
      6 F           7.6942   78.9763   18.5501 F       1  UNL1       -0.2040
      7 C           8.5369   78.5751   20.7282 C.ar    1  UNL1        0.0443
      8 N           9.5999   75.4935   25.6158 N.3     1  UNL1       -0.3053
      9 C           9.0220   76.5581   24.7931 C.3     1  UNL1        0.1480
     10 C           9.8167   76.7352   23.4936 C.3     1  UNL1        0.1273
     11 N           9.4883   78.0375   22.9332 N.pl3   1  UNL1       -0.3029
     12 C           9.9824   79.1709   23.7082 C.3     1  UNL1        0.1123
     13 C           9.4485   79.1260   25.1525 C.3     1  UNL1        0.1134
     14 N           8.9305   77.8079   25.5805 N.pl3   1  UNL1       -0.2935
     15 H          10.5813   75.7522   25.8697 H       1  UNL1        0.1203
     16 H           9.6374   74.6126   25.0524 H       1  UNL1        0.1203
     17 C           8.1587   77.7794   26.7919 C.ar    1  UNL1        0.0488
     18 C           6.7871   77.4975   26.7473 C.ar    1  UNL1        0.0145
     19 C           6.0359   77.4636   27.9258 C.ar    1  UNL1        0.0051
     20 C           6.6449   77.7216   29.1667 C.ar    1  UNL1        0.0715
     21 C           8.0287   77.9651   29.2092 C.ar    1  UNL1        0.0051
     22 C           8.7774   78.0029   28.0301 C.ar    1  UNL1        0.0145
     23 C           5.8465   77.6370   30.4428 C.3     1  UNL1        0.4186
     24 F           4.5938   78.2014   30.2744 F       1  UNL1       -0.1659
     25 F           5.6985   76.3099   30.7998 F       1  UNL1       -0.1659
     26 F           6.4901   78.3107   31.4666 F       1  UNL1       -0.1659
     27 C           5.0445   78.1319   19.2972 C.2     1  UNL1        0.2483
     28 O           5.2201   78.3974   18.0783 O.2     1  UNL1       -0.2701
     29 N           3.7561   77.6814   19.7269 N.am    1  UNL1       -0.2945
     30 H           3.2261   78.2805   20.3996 H       1  UNL1        0.1501
     31 C           3.4280   76.2588   19.6459 C.3     1  UNL1        0.1535
     32 C           4.6506   75.4453   19.9909 C.2     1  UNL1        0.2443
     33 O           5.4609   75.1198   19.0806 O.2     1  UNL1       -0.2730
     34 N           4.8305   74.9574   21.3290 N.am    1  UNL1       -0.2825
     35 H           3.9959   74.9376   21.9579 H       1  UNL1        0.1549
     36 C           6.0571   74.3892   21.8169 C.ar    1  UNL1        0.0535
     37 C           7.2045   74.3154   21.0093 C.ar    1  UNL1        0.0353
     38 C           8.3852   73.7875   21.5372 C.ar    1  UNL1        0.1002
     39 N           8.4245   73.3570   22.8259 N.ar    1  UNL1       -0.2422
     40 C           7.3341   73.4302   23.6340 C.ar    1  UNL1        0.1002
     41 C           6.1347   73.9551   23.1469 C.ar    1  UNL1        0.0353
     42 C           2.2416   75.9315   20.5706 C.3     1  UNL1        0.0569
     43 C           2.0429   77.0060   21.6033 C.ar    1  UNL1       -0.0017
     44 C           1.1943   78.1038   21.4929 C.ar    1  UNL1        0.0681
     45 N           1.1662   78.7987   22.6526 N.ar    1  UNL1       -0.3523
     46 C           1.9803   78.1437   23.4982 C.ar    1  UNL1        0.0563
     47 C           2.2488   78.4640   24.8283 C.ar    1  UNL1        0.0170
     48 C           3.1161   77.6204   25.5459 C.ar    1  UNL1        0.0015
     49 C           3.6893   76.4889   24.9251 C.ar    1  UNL1        0.0001
     50 C           3.3999   76.1895   23.5816 C.ar    1  UNL1        0.0012
     51 C           2.5339   77.0427   22.8954 C.ar    1  UNL1        0.0131
     52 H           0.6058   79.6566   22.8535 H       1  UNL1        0.1660
@<TRIPOS>BOND
     1     8     9    1
     2     9    10    1
     3    10    11    1
     4    11     1    1
     5     1     2   ar
     6     2     3   ar
     7     3     4   ar
     8     4    27    1
     9    27    28    2
    10    27    29   am
    11    29    31    1
    12    31    42    1
    13    42    43    1
    14    43    44   ar
    15    44    45   ar
    16    45    46   ar
    17    46    47   ar
    18    47    48   ar
    19    48    49   ar
    20    49    50   ar
    21    50    51   ar
    22    31    32    1
    23    32    33    2
    24    32    34   am
    25    34    36    1
    26    36    37   ar
    27    37    38   ar
    28    38    39   ar
    29    39    40   ar
    30    40    41   ar
    31     4     5   ar
    32     5     6    1
    33     5     7   ar
    34    11    12    1
    35    12    13    1
    36    13    14    1
    37    14    17    1
    38    17    18   ar
    39    18    19   ar
    40    19    20   ar
    41    20    23    1
    42    23    24    1
    43    23    25    1
    44    23    26    1
    45    20    21   ar
    46    21    22   ar
    47    14     9    1
    48    22    17   ar
    49     7     1   ar
    50    51    43   ar
    51    41    36   ar
    52    51    46   ar
    53     8    15    1
    54     8    16    1
    55    29    30    1
    56    45    52    1
    57    34    35    1
