@<TRIPOS>MOLECULE
*****
 37 41 0 0 0
SMALL
GASTEIGER

@<TRIPOS>ATOM
      1 C         -29.8568   50.0847   -8.2447 C.ar    1  UNL1        0.1317
      2 C         -31.1636   49.9382   -8.7526 C.ar    1  UNL1        0.0286
      3 C         -31.4440   50.2420  -10.0977 C.ar    1  UNL1        0.0777
      4 C         -30.4131   50.6872  -10.9360 C.ar    1  UNL1        0.2970
      5 N         -29.1669   50.8145  -10.4106 N.ar    1  UNL1       -0.1224
      6 C         -28.0105   51.1768  -10.9879 C.ar    1  UNL1        0.2715
      7 S         -27.8112   51.5271  -12.7379 S.3     1  UNL1       -0.0718
      8 C         -27.0169   51.0983  -10.0152 C.ar    1  UNL1        0.1320
      9 N         -27.5587   50.6774   -8.8461 N.ar    1  UNL1       -0.2938
     10 C         -28.8693   50.5298   -9.1310 C.ar    1  UNL1        0.3126
     11 H         -27.5746   50.1719  -13.0334 H       1  UNL1        0.1129
     12 H         -27.1023   50.5169   -7.9887 H       1  UNL1        0.1718
     13 N         -29.2462   49.0030   -4.1722 N.3     1  UNL1       -0.2647
     14 C         -29.2926   47.9731   -5.2341 C.3     1  UNL1        0.0941
     15 C         -28.7913   48.5531   -6.5568 C.3     1  UNL1        0.1084
     16 N         -29.5455   49.7671   -6.8771 N.pl3   1  UNL1       -0.2988
     17 C         -29.6657   50.7873   -5.8336 C.3     1  UNL1        0.1084
     18 C         -30.1268   50.1362   -4.5269 C.3     1  UNL1        0.0941
     19 C         -29.6628   48.4325   -2.8749 C.3     1  UNL1        0.1200
     20 N         -27.4424   45.5896   -2.2091 N.ar    1  UNL1       -0.3128
     21 C         -28.6793   45.0523   -2.2002 C.ar    1  UNL1        0.1780
     22 N         -29.6456   45.9622   -2.4451 N.ar    1  UNL1       -0.2273
     23 C         -28.9764   47.1185   -2.6323 C.ar    1  UNL1        0.0885
     24 C         -27.6164   46.8946   -2.5028 C.ar    1  UNL1        0.0537
     25 C         -26.5292   47.9275   -2.5820 C.3     1  UNL1        0.0514
     26 C         -25.7609   44.1589   -3.2788 C.3     1  UNL1        0.0265
     27 C         -26.1913   44.8608   -1.9961 C.3     1  UNL1        0.1073
     28 C         -25.5719   51.3686  -10.1751 C.ar    1  UNL1        0.0221
     29 C         -24.7921   51.6543   -9.0475 C.ar    1  UNL1        0.0013
     30 C         -23.4286   51.9275   -9.1770 C.ar    1  UNL1       -0.0042
     31 C         -22.8017   51.9368  -10.4424 C.ar    1  UNL1       -0.0228
     32 C         -23.6066   51.6709  -11.5749 C.ar    1  UNL1       -0.0042
     33 C         -24.9705   51.3967  -11.4404 C.ar    1  UNL1        0.0013
     34 C         -21.2931   52.2433  -10.5432 C.3     1  UNL1        0.0189
     35 C         -21.0745   53.4483  -11.4838 C.3     1  UNL1        0.0044
     36 C         -20.7411   52.5808   -9.1408 C.3     1  UNL1        0.0044
     37 C         -20.4683   51.0572  -11.0985 C.3     1  UNL1        0.0044
@<TRIPOS>BOND
     1    26    27    1
     2    27    20    1
     3    20    21   ar
     4    21    22   ar
     5    22    23   ar
     6    23    19    1
     7    19    13    1
     8    13    14    1
     9    14    15    1
    10    15    16    1
    11    16     1    1
    12     1     2   ar
    13     2     3   ar
    14     3     4   ar
    15     4     5   ar
    16     5     6   ar
    17     6     7    1
    18     6     8   ar
    19     8    28    1
    20    28    29   ar
    21    29    30   ar
    22    30    31   ar
    23    31    34    1
    24    34    35    1
    25    34    36    1
    26    34    37    1
    27    31    32   ar
    28    32    33   ar
    29     8     9   ar
    30     9    10   ar
    31    16    17    1
    32    17    18    1
    33    23    24   ar
    34    24    25    1
    35    24    20   ar
    36    18    13    1
    37    10     1   ar
    38    10     5   ar
    39    33    28   ar
    40     7    11    1
    41     9    12    1
@<TRIPOS>MOLECULE
*****
 37 41 0 0 0
SMALL
GASTEIGER

@<TRIPOS>ATOM
      1 C         -29.0900   47.7331   -8.2290 C.ar    1  UNL1        0.1317
      2 C         -30.4350   47.5439   -8.6059 C.ar    1  UNL1        0.0286
      3 C         -31.0177   48.3522   -9.5995 C.ar    1  UNL1        0.0777
      4 C         -30.2502   49.3467  -10.2203 C.ar    1  UNL1        0.2970
      5 N         -28.9575   49.4980   -9.8313 N.ar    1  UNL1       -0.1224
      6 C         -28.0046   50.3310  -10.2782 C.ar    1  UNL1        0.2715
      7 S         -28.2092   51.4703  -11.6513 S.3     1  UNL1       -0.0718
      8 C         -26.8378   50.0455   -9.5735 C.ar    1  UNL1        0.1320
      9 N         -27.0695   49.0316   -8.7040 N.ar    1  UNL1       -0.2938
     10 C         -28.3740   48.7396   -8.8871 C.ar    1  UNL1        0.3126
     11 H         -27.8381   50.4873  -12.5872 H       1  UNL1        0.1129
     12 H         -26.4339   48.6072   -8.0834 H       1  UNL1        0.1718
     13 N         -27.3614   45.5239   -5.0258 N.3     1  UNL1       -0.2647
     14 C         -28.8303   45.6083   -5.1862 C.3     1  UNL1        0.0941
     15 C         -29.1938   45.7668   -6.6627 C.3     1  UNL1        0.1084
     16 N         -28.4710   46.9096   -7.2256 N.pl3   1  UNL1       -0.2988
     17 C         -27.0259   46.9778   -6.9992 C.3     1  UNL1        0.1084
     18 C         -26.7267   46.7672   -5.5124 C.3     1  UNL1        0.0941
     19 C         -27.0041   45.3006   -3.6101 C.3     1  UNL1        0.1200
     20 N         -29.3393   47.1853   -1.5005 N.ar    1  UNL1       -0.3128
     21 C         -29.8861   45.9552   -1.5819 C.ar    1  UNL1        0.1780
     22 N         -29.1461   45.1028   -2.3217 N.ar    1  UNL1       -0.2273
     23 C         -28.0785   45.8329   -2.7051 C.ar    1  UNL1        0.0885
     24 C         -28.1826   47.1140   -2.1909 C.ar    1  UNL1        0.0537
     25 C         -27.2323   48.2522   -2.4285 C.3     1  UNL1        0.0514
     26 C         -30.0780   47.9527    0.7095 C.3     1  UNL1        0.0265
     27 C         -29.8908   48.3195   -0.7580 C.3     1  UNL1        0.1073
     28 C         -25.5091   50.6749   -9.7318 C.ar    1  UNL1        0.0221
     29 C         -25.0221   50.9505  -11.0156 C.ar    1  UNL1        0.0013
     30 C         -23.7636   51.5306  -11.1889 C.ar    1  UNL1       -0.0042
     31 C         -22.9437   51.8428  -10.0822 C.ar    1  UNL1       -0.0228
     32 C         -23.4379   51.5362   -8.7927 C.ar    1  UNL1       -0.0042
     33 C         -24.6986   50.9568   -8.6241 C.ar    1  UNL1        0.0013
     34 C         -21.5595   52.4830  -10.3159 C.3     1  UNL1        0.0189
     35 C         -20.8500   52.6841   -8.9592 C.3     1  UNL1        0.0044
     36 C         -20.7066   51.5546  -11.2080 C.3     1  UNL1        0.0044
     37 C         -21.6385   53.8617  -11.0146 C.3     1  UNL1        0.0044
@<TRIPOS>BOND
     1    26    27    1
     2    27    20    1
     3    20    21   ar
     4    21    22   ar
     5    22    23   ar
     6    23    19    1
     7    19    13    1
     8    13    14    1
     9    14    15    1
    10    15    16    1
    11    16     1    1
    12     1     2   ar
    13     2     3   ar
    14     3     4   ar
    15     4     5   ar
    16     5     6   ar
    17     6     7    1
    18     6     8   ar
    19     8    28    1
    20    28    29   ar
    21    29    30   ar
    22    30    31   ar
    23    31    34    1
    24    34    35    1
    25    34    36    1
    26    34    37    1
    27    31    32   ar
    28    32    33   ar
    29     8     9   ar
    30     9    10   ar
    31    16    17    1
    32    17    18    1
    33    23    24   ar
    34    24    25    1
    35    24    20   ar
    36    18    13    1
    37    10     1   ar
    38    10     5   ar
    39    33    28   ar
    40     7    11    1
    41     9    12    1
@<TRIPOS>MOLECULE
*****
 37 41 0 0 0
SMALL
GASTEIGER

@<TRIPOS>ATOM
      1 C         -27.4681   51.1045  -10.3349 C.ar    1  UNL1        0.1317
      2 C         -28.4608   51.6032  -11.2026 C.ar    1  UNL1        0.0286
      3 C         -29.7898   51.1522  -11.0997 C.ar    1  UNL1        0.0777
      4 C         -30.1255   50.2054  -10.1228 C.ar    1  UNL1        0.2970
      5 N         -29.1419   49.7495   -9.3043 N.ar    1  UNL1       -0.1224
      6 C         -29.1927   48.8864   -8.2776 C.ar    1  UNL1        0.2715
      7 S         -30.6993   48.1381   -7.6490 S.3     1  UNL1       -0.0718
      8 C         -27.9098   48.8000   -7.7423 C.ar    1  UNL1        0.1320
      9 N         -27.0751   49.6168   -8.4306 N.ar    1  UNL1       -0.2938
     10 C         -27.8651   50.1634   -9.3780 C.ar    1  UNL1        0.3126
     11 H         -30.9417   49.2270   -6.7914 H       1  UNL1        0.1129
     12 H         -26.1158   49.7744   -8.2753 H       1  UNL1        0.1718
     13 N         -23.3414   52.1440  -10.4703 N.3     1  UNL1       -0.2647
     14 C         -23.9265   51.2209  -11.4683 C.3     1  UNL1        0.0941
     15 C         -25.4010   51.5536  -11.6972 C.3     1  UNL1        0.1084
     16 N         -26.1068   51.5615  -10.4138 N.pl3   1  UNL1       -0.2988
     17 C         -25.5238   52.3449   -9.3227 C.3     1  UNL1        0.1084
     18 C         -24.0397   51.9986   -9.1755 C.3     1  UNL1        0.0941
     19 C         -21.8997   51.8748  -10.2943 C.3     1  UNL1        0.1200
     20 N         -19.8570   54.4385   -8.6479 N.ar    1  UNL1       -0.3128
     21 C         -20.4665   55.0974   -9.6544 C.ar    1  UNL1        0.1780
     22 N         -21.2853   54.3045  -10.3771 N.ar    1  UNL1       -0.2273
     23 C         -21.1941   53.0977   -9.7811 C.ar    1  UNL1        0.0885
     24 C         -20.3266   53.1752   -8.7050 C.ar    1  UNL1        0.0537
     25 C         -19.9064   52.0429   -7.8126 C.3     1  UNL1        0.0514
     26 C         -19.2488   56.4984   -7.4623 C.3     1  UNL1        0.0265
     27 C         -18.9284   55.0242   -7.6801 C.3     1  UNL1        0.1073
     28 C         -27.4678   48.0024   -6.5782 C.ar    1  UNL1        0.0221
     29 C         -26.3740   47.1373   -6.7068 C.ar    1  UNL1        0.0013
     30 C         -25.9490   46.3634   -5.6248 C.ar    1  UNL1       -0.0042
     31 C         -26.6132   46.4198   -4.3798 C.ar    1  UNL1       -0.0228
     32 C         -27.7315   47.2793   -4.2715 C.ar    1  UNL1       -0.0042
     33 C         -28.1525   48.0529   -5.3567 C.ar    1  UNL1        0.0013
     34 C         -26.1126   45.5488   -3.2089 C.3     1  UNL1        0.0189
     35 C         -25.7785   44.1330   -3.7269 C.3     1  UNL1        0.0044
     36 C         -24.8438   46.1846   -2.5996 C.3     1  UNL1        0.0044
     37 C         -27.1542   45.4009   -2.0737 C.3     1  UNL1        0.0044
@<TRIPOS>BOND
     1    26    27    1
     2    27    20    1
     3    20    21   ar
     4    21    22   ar
     5    22    23   ar
     6    23    19    1
     7    19    13    1
     8    13    14    1
     9    14    15    1
    10    15    16    1
    11    16     1    1
    12     1     2   ar
    13     2     3   ar
    14     3     4   ar
    15     4     5   ar
    16     5     6   ar
    17     6     7    1
    18     6     8   ar
    19     8    28    1
    20    28    29   ar
    21    29    30   ar
    22    30    31   ar
    23    31    34    1
    24    34    35    1
    25    34    36    1
    26    34    37    1
    27    31    32   ar
    28    32    33   ar
    29     8     9   ar
    30     9    10   ar
    31    16    17    1
    32    17    18    1
    33    23    24   ar
    34    24    25    1
    35    24    20   ar
    36    18    13    1
    37    10     1   ar
    38    10     5   ar
    39    33    28   ar
    40     7    11    1
    41     9    12    1
@<TRIPOS>MOLECULE
*****
 37 41 0 0 0
SMALL
GASTEIGER

@<TRIPOS>ATOM
      1 C         -26.1485   51.0445  -10.7156 C.ar    1  UNL1        0.1317
      2 C         -26.9794   51.6043  -11.7072 C.ar    1  UNL1        0.0286
      3 C         -28.3380   51.2459  -11.7848 C.ar    1  UNL1        0.0777
      4 C         -28.8658   50.3306  -10.8644 C.ar    1  UNL1        0.2970
      5 N         -28.0343   49.8137   -9.9227 N.ar    1  UNL1       -0.1224
      6 C         -28.2813   48.9627   -8.9145 C.ar    1  UNL1        0.2715
      7 S         -29.9063   48.3231   -8.4958 S.3     1  UNL1       -0.0718
      8 C         -27.0907   48.7922   -8.2122 C.ar    1  UNL1        0.1320
      9 N         -26.1172   49.5456   -8.7800 N.ar    1  UNL1       -0.2938
     10 C         -26.7337   50.1389   -9.8233 C.ar    1  UNL1        0.3126
     11 H         -30.1861   49.4315   -7.6753 H       1  UNL1        0.1129
     12 H         -25.1788   49.6383   -8.4970 H       1  UNL1        0.1718
     13 N         -22.1431   52.4346  -10.3245 N.3     1  UNL1       -0.2647
     14 C         -23.0155   52.2845   -9.1384 C.3     1  UNL1        0.0941
     15 C         -24.0291   51.1626   -9.3649 C.3     1  UNL1        0.1084
     16 N         -24.7608   51.4069  -10.6100 N.pl3   1  UNL1       -0.2988
     17 C         -23.9775   51.6984  -11.8123 C.3     1  UNL1        0.1084
     18 C         -22.9537   52.7952  -11.5070 C.3     1  UNL1        0.0941
     19 C         -21.1157   53.4691  -10.0878 C.3     1  UNL1        0.1200
     20 N         -17.9565   52.0119   -8.9251 N.ar    1  UNL1       -0.3128
     21 C         -18.6103   52.3325   -7.7900 C.ar    1  UNL1        0.1780
     22 N         -19.8221   52.8795   -8.0222 N.ar    1  UNL1       -0.2273
     23 C         -19.9350   52.8839   -9.3665 C.ar    1  UNL1        0.0885
     24 C         -18.7950   52.3372   -9.9305 C.ar    1  UNL1        0.0537
     25 C         -18.4966   52.2092  -11.3966 C.3     1  UNL1        0.0514
     26 C         -15.8486   51.6461   -7.7244 C.3     1  UNL1        0.0265
     27 C         -16.6349   51.3882   -9.0044 C.3     1  UNL1        0.1073
     28 C         -26.8643   47.9737   -7.0016 C.ar    1  UNL1        0.0221
     29 C         -27.7283   48.1030   -5.9070 C.ar    1  UNL1        0.0013
     30 C         -27.5243   47.3510   -4.7480 C.ar    1  UNL1       -0.0042
     31 C         -26.4399   46.4527   -4.6406 C.ar    1  UNL1       -0.0228
     32 C         -25.5611   46.3507   -5.7445 C.ar    1  UNL1       -0.0042
     33 C         -25.7699   47.1044   -6.9028 C.ar    1  UNL1        0.0013
     34 C         -26.2491   45.6402   -3.3431 C.3     1  UNL1        0.0189
     35 C         -26.2321   44.1328   -3.6777 C.3     1  UNL1        0.0044
     36 C         -24.9104   46.0337   -2.6810 C.3     1  UNL1        0.0044
     37 C         -27.3729   45.8794   -2.3062 C.3     1  UNL1        0.0044
@<TRIPOS>BOND
     1    26    27    1
     2    27    20    1
     3    20    21   ar
     4    21    22   ar
     5    22    23   ar
     6    23    19    1
     7    19    13    1
     8    13    14    1
     9    14    15    1
    10    15    16    1
    11    16     1    1
    12     1     2   ar
    13     2     3   ar
    14     3     4   ar
    15     4     5   ar
    16     5     6   ar
    17     6     7    1
    18     6     8   ar
    19     8    28    1
    20    28    29   ar
    21    29    30   ar
    22    30    31   ar
    23    31    34    1
    24    34    35    1
    25    34    36    1
    26    34    37    1
    27    31    32   ar
    28    32    33   ar
    29     8     9   ar
    30     9    10   ar
    31    16    17    1
    32    17    18    1
    33    23    24   ar
    34    24    25    1
    35    24    20   ar
    36    18    13    1
    37    10     1   ar
    38    10     5   ar
    39    33    28   ar
    40     7    11    1
    41     9    12    1
@<TRIPOS>MOLECULE
*****
 37 41 0 0 0
SMALL
GASTEIGER

@<TRIPOS>ATOM
      1 C         -25.7925   51.2755  -10.6642 C.ar    1  UNL1        0.1317
      2 C         -26.5566   51.7299  -11.7581 C.ar    1  UNL1        0.0286
      3 C         -27.8447   51.2137  -11.9917 C.ar    1  UNL1        0.0777
      4 C         -28.3699   50.2459  -11.1251 C.ar    1  UNL1        0.2970
      5 N         -27.6042   49.8339  -10.0814 N.ar    1  UNL1       -0.1224
      6 C         -27.8707   48.9634   -9.0950 C.ar    1  UNL1        0.2715
      7 S         -29.4488   48.1384   -8.8630 S.3     1  UNL1       -0.0718
      8 C         -26.7623   48.9369   -8.2521 C.ar    1  UNL1        0.1320
      9 N         -25.8217   49.7977   -8.7124 N.ar    1  UNL1       -0.2938
     10 C         -26.3721   50.3105   -9.8325 C.ar    1  UNL1        0.3126
     11 H         -29.9532   49.2091   -8.1019 H       1  UNL1        0.1129
     12 H         -24.9417   50.0013   -8.3206 H       1  UNL1        0.1718
     13 N         -21.8998   52.9379  -10.2037 N.3     1  UNL1       -0.2647
     14 C         -23.0881   53.8097  -10.3403 C.3     1  UNL1        0.0941
     15 C         -24.3243   53.1132   -9.7712 C.3     1  UNL1        0.1084
     16 N         -24.4796   51.7992  -10.3993 N.pl3   1  UNL1       -0.2988
     17 C         -23.3105   50.9181  -10.4292 C.3     1  UNL1        0.1084
     18 C         -22.0995   51.6867  -10.9652 C.3     1  UNL1        0.0941
     19 C         -20.6878   53.6300  -10.6873 C.3     1  UNL1        0.1200
     20 N         -19.3604   55.8398   -8.0776 N.ar    1  UNL1       -0.3128
     21 C         -20.0003   56.6734   -8.9228 C.ar    1  UNL1        0.1780
     22 N         -20.5746   56.0267   -9.9589 N.ar    1  UNL1       -0.2273
     23 C         -20.2929   54.7259   -9.7387 C.ar    1  UNL1        0.0885
     24 C         -19.5569   54.6006   -8.5729 C.ar    1  UNL1        0.0537
     25 C         -18.9955   53.3298   -8.0029 C.3     1  UNL1        0.0514
     26 C         -18.5613   57.7520   -6.7646 C.3     1  UNL1        0.0265
     27 C         -18.6585   56.2336   -6.8552 C.3     1  UNL1        0.1073
     28 C         -26.5906   48.1552   -7.0087 C.ar    1  UNL1        0.0221
     29 C         -25.7414   47.0417   -7.0028 C.ar    1  UNL1        0.0013
     30 C         -25.5761   46.2802   -5.8438 C.ar    1  UNL1       -0.0042
     31 C         -26.2662   46.6002   -4.6539 C.ar    1  UNL1       -0.0228
     32 C         -27.1396   47.7127   -4.6815 C.ar    1  UNL1       -0.0042
     33 C         -27.3008   48.4727   -5.8433 C.ar    1  UNL1        0.0013
     34 C         -26.0564   45.7339   -3.3947 C.3     1  UNL1        0.0189
     35 C         -25.9111   44.2530   -3.8074 C.3     1  UNL1        0.0044
     36 C         -24.7753   46.1904   -2.6629 C.3     1  UNL1        0.0044
     37 C         -27.2296   45.8294   -2.3898 C.3     1  UNL1        0.0044
@<TRIPOS>BOND
     1    26    27    1
     2    27    20    1
     3    20    21   ar
     4    21    22   ar
     5    22    23   ar
     6    23    19    1
     7    19    13    1
     8    13    14    1
     9    14    15    1
    10    15    16    1
    11    16     1    1
    12     1     2   ar
    13     2     3   ar
    14     3     4   ar
    15     4     5   ar
    16     5     6   ar
    17     6     7    1
    18     6     8   ar
    19     8    28    1
    20    28    29   ar
    21    29    30   ar
    22    30    31   ar
    23    31    34    1
    24    34    35    1
    25    34    36    1
    26    34    37    1
    27    31    32   ar
    28    32    33   ar
    29     8     9   ar
    30     9    10   ar
    31    16    17    1
    32    17    18    1
    33    23    24   ar
    34    24    25    1
    35    24    20   ar
    36    18    13    1
    37    10     1   ar
    38    10     5   ar
    39    33    28   ar
    40     7    11    1
    41     9    12    1
@<TRIPOS>MOLECULE
*****
 37 41 0 0 0
SMALL
GASTEIGER

@<TRIPOS>ATOM
      1 C         -27.5331   50.9149  -10.6281 C.ar    1  UNL1        0.1317
      2 C         -28.2557   51.3958  -11.7388 C.ar    1  UNL1        0.0286
      3 C         -29.6205   51.0876  -11.8894 C.ar    1  UNL1        0.0777
      4 C         -30.2631   50.3021  -10.9233 C.ar    1  UNL1        0.2970
      5 N         -29.5340   49.8582   -9.8665 N.ar    1  UNL1       -0.1224
      6 C         -29.9007   49.1347   -8.7971 C.ar    1  UNL1        0.2715
      7 S         -31.5832   48.6131   -8.4479 S.3     1  UNL1       -0.0718
      8 C         -28.7781   48.9935   -7.9849 C.ar    1  UNL1        0.1320
      9 N         -27.7270   49.6387   -8.5477 N.ar    1  UNL1       -0.2938
     10 C         -28.2304   50.1383   -9.6955 C.ar    1  UNL1        0.3126
     11 H         -31.8698   49.8158   -7.7762 H       1  UNL1        0.1129
     12 H         -26.8099   49.7231   -8.1999 H       1  UNL1        0.1718
     13 N         -23.4784   52.1516  -10.2310 N.3     1  UNL1       -0.2647
     14 C         -24.5401   52.7417   -9.3853 C.3     1  UNL1        0.0941
     15 C         -25.6606   51.7271   -9.1570 C.3     1  UNL1        0.1084
     16 N         -26.1414   51.2289  -10.4477 N.pl3   1  UNL1       -0.2988
     17 C         -25.1431   50.7475  -11.4046 C.3     1  UNL1        0.1084
     18 C         -24.0288   51.7869  -11.5536 C.3     1  UNL1        0.0941
     19 C         -22.3590   53.1006  -10.3992 C.3     1  UNL1        0.1200
     20 N         -19.1126   51.5270   -9.7356 N.ar    1  UNL1       -0.3128
     21 C         -19.4663   51.0564  -10.9488 C.ar    1  UNL1        0.1780
     22 N         -20.6505   51.5451  -11.3735 N.ar    1  UNL1       -0.2273
     23 C         -21.0447   52.3731  -10.3841 C.ar    1  UNL1        0.0885
     24 C         -20.0950   52.3790   -9.3768 C.ar    1  UNL1        0.0537
     25 C         -20.1772   53.1238   -8.0755 C.3     1  UNL1        0.0514
     26 C         -16.6636   51.5091   -9.8812 C.3     1  UNL1        0.0265
     27 C         -17.8804   51.2000   -9.0168 C.3     1  UNL1        0.1073
     28 C         -28.6874   48.3050   -6.6795 C.ar    1  UNL1        0.0221
     29 C         -29.2402   48.9042   -5.5408 C.ar    1  UNL1        0.0013
     30 C         -29.1528   48.2788   -4.2952 C.ar    1  UNL1       -0.0042
     31 C         -28.4971   47.0371   -4.1448 C.ar    1  UNL1       -0.0228
     32 C         -27.9218   46.4554   -5.2989 C.ar    1  UNL1       -0.0042
     33 C         -28.0129   47.0844   -6.5437 C.ar    1  UNL1        0.0013
     34 C         -28.4219   46.3788   -2.7516 C.3     1  UNL1        0.0189
     35 C         -28.6689   47.4466   -1.6639 C.3     1  UNL1        0.0044
     36 C         -29.4996   45.2777   -2.6433 C.3     1  UNL1        0.0044
     37 C         -27.0503   45.7221   -2.4636 C.3     1  UNL1        0.0044
@<TRIPOS>BOND
     1    26    27    1
     2    27    20    1
     3    20    21   ar
     4    21    22   ar
     5    22    23   ar
     6    23    19    1
     7    19    13    1
     8    13    14    1
     9    14    15    1
    10    15    16    1
    11    16     1    1
    12     1     2   ar
    13     2     3   ar
    14     3     4   ar
    15     4     5   ar
    16     5     6   ar
    17     6     7    1
    18     6     8   ar
    19     8    28    1
    20    28    29   ar
    21    29    30   ar
    22    30    31   ar
    23    31    34    1
    24    34    35    1
    25    34    36    1
    26    34    37    1
    27    31    32   ar
    28    32    33   ar
    29     8     9   ar
    30     9    10   ar
    31    16    17    1
    32    17    18    1
    33    23    24   ar
    34    24    25    1
    35    24    20   ar
    36    18    13    1
    37    10     1   ar
    38    10     5   ar
    39    33    28   ar
    40     7    11    1
    41     9    12    1
@<TRIPOS>MOLECULE
*****
 37 41 0 0 0
SMALL
GASTEIGER

@<TRIPOS>ATOM
      1 C         -28.3077   46.4797   -8.8842 C.ar    1  UNL1        0.1317
      2 C         -28.5413   45.6020   -9.9622 C.ar    1  UNL1        0.0286
      3 C         -29.4141   44.5080   -9.8149 C.ar    1  UNL1        0.0777
      4 C         -30.0580   44.2969   -8.5884 C.ar    1  UNL1        0.2970
      5 N         -29.8088   45.1648   -7.5736 N.ar    1  UNL1       -0.1224
      6 C         -30.3106   45.2186   -6.3298 C.ar    1  UNL1        0.2715
      7 S         -31.5828   44.1211   -5.6959 S.3     1  UNL1       -0.0718
      8 C         -29.7595   46.3355   -5.7063 C.ar    1  UNL1        0.1320
      9 N         -28.9303   46.9734   -6.5684 N.ar    1  UNL1       -0.2938
     10 C         -28.9822   46.2190   -7.6859 C.ar    1  UNL1        0.3126
     11 H         -32.6105   44.9491   -6.1841 H       1  UNL1        0.1129
     12 H         -28.4112   47.7956   -6.4149 H       1  UNL1        0.1718
     13 N         -25.8392   49.9475   -8.9828 N.3     1  UNL1       -0.2647
     14 C         -25.6023   48.8728   -7.9930 C.3     1  UNL1        0.0941
     15 C         -26.0412   47.5231   -8.5613 C.3     1  UNL1        0.1084
     16 N         -27.4303   47.6114   -9.0171 N.pl3   1  UNL1       -0.2988
     17 C         -27.7872   48.7265   -9.8965 C.3     1  UNL1        0.1084
     18 C         -27.2814   50.0401   -9.2941 C.3     1  UNL1        0.0941
     19 C         -25.3538   51.2446   -8.4693 C.3     1  UNL1        0.1200
     20 N         -22.1352   51.9180  -10.0949 N.ar    1  UNL1       -0.3128
     21 C         -21.8378   51.8685   -8.7804 C.ar    1  UNL1        0.1780
     22 N         -22.9162   51.6120   -8.0105 N.ar    1  UNL1       -0.2273
     23 C         -23.9307   51.4785   -8.8896 C.ar    1  UNL1        0.0885
     24 C         -23.4549   51.6513  -10.1781 C.ar    1  UNL1        0.0537
     25 C         -24.2683   51.6377  -11.4404 C.3     1  UNL1        0.0514
     26 C         -19.7910   52.4212  -10.6150 C.3     1  UNL1        0.0265
     27 C         -21.1821   52.1575  -11.1794 C.3     1  UNL1        0.1073
     28 C         -30.0293   46.8335   -4.3403 C.ar    1  UNL1        0.0221
     29 C         -29.0007   46.8396   -3.3900 C.ar    1  UNL1        0.0013
     30 C         -29.2371   47.2913   -2.0898 C.ar    1  UNL1       -0.0042
     31 C         -30.5158   47.7405   -1.6929 C.ar    1  UNL1       -0.0228
     32 C         -31.5513   47.7055   -2.6562 C.ar    1  UNL1       -0.0042
     33 C         -31.3097   47.2538   -3.9566 C.ar    1  UNL1        0.0013
     34 C         -30.7362   48.2317   -0.2471 C.3     1  UNL1        0.0189
     35 C         -31.5394   47.1729    0.5392 C.3     1  UNL1        0.0044
     36 C         -29.3688   48.4502    0.4367 C.3     1  UNL1        0.0044
     37 C         -31.5167   49.5660   -0.1716 C.3     1  UNL1        0.0044
@<TRIPOS>BOND
     1    26    27    1
     2    27    20    1
     3    20    21   ar
     4    21    22   ar
     5    22    23   ar
     6    23    19    1
     7    19    13    1
     8    13    14    1
     9    14    15    1
    10    15    16    1
    11    16     1    1
    12     1     2   ar
    13     2     3   ar
    14     3     4   ar
    15     4     5   ar
    16     5     6   ar
    17     6     7    1
    18     6     8   ar
    19     8    28    1
    20    28    29   ar
    21    29    30   ar
    22    30    31   ar
    23    31    34    1
    24    34    35    1
    25    34    36    1
    26    34    37    1
    27    31    32   ar
    28    32    33   ar
    29     8     9   ar
    30     9    10   ar
    31    16    17    1
    32    17    18    1
    33    23    24   ar
    34    24    25    1
    35    24    20   ar
    36    18    13    1
    37    10     1   ar
    38    10     5   ar
    39    33    28   ar
    40     7    11    1
    41     9    12    1
@<TRIPOS>MOLECULE
*****
 37 41 0 0 0
SMALL
GASTEIGER

@<TRIPOS>ATOM
      1 C         -26.0959   50.7891   -8.1220 C.ar    1  UNL1        0.1317
      2 C         -27.3239   51.2422   -8.6450 C.ar    1  UNL1        0.0286
      3 C         -27.3509   52.2196   -9.6570 C.ar    1  UNL1        0.0777
      4 C         -26.1462   52.7389  -10.1496 C.ar    1  UNL1        0.2970
      5 N         -24.9831   52.2766   -9.6217 N.ar    1  UNL1       -0.1224
      6 C         -23.7095   52.5683   -9.9294 C.ar    1  UNL1        0.2715
      7 S         -23.2082   53.6600  -11.2642 S.3     1  UNL1       -0.0718
      8 C         -22.8945   51.7803   -9.1203 C.ar    1  UNL1        0.1320
      9 N         -23.6650   50.9976   -8.3257 N.ar    1  UNL1       -0.2938
     10 C         -24.9268   51.3426   -8.6565 C.ar    1  UNL1        0.3126
     11 H         -23.2301   52.6087  -12.1992 H       1  UNL1        0.1129
     12 H         -23.3720   50.3322   -7.6618 H       1  UNL1        0.1718
     13 N         -26.2748   47.7405   -5.1551 N.3     1  UNL1       -0.2647
     14 C         -26.3243   47.4040   -6.5956 C.3     1  UNL1        0.0941
     15 C         -25.5471   48.4396   -7.4084 C.3     1  UNL1        0.1084
     16 N         -26.0451   49.7815   -7.0972 N.pl3   1  UNL1       -0.2988
     17 C         -26.1571   50.1540   -5.6856 C.3     1  UNL1        0.1084
     18 C         -26.9038   49.0576   -4.9209 C.3     1  UNL1        0.0941
     19 C         -26.9640   46.7075   -4.3552 C.3     1  UNL1        0.1200
     20 N         -29.5719   48.0456   -2.1498 N.ar    1  UNL1       -0.3128
     21 C         -28.4288   48.2257   -1.4573 C.ar    1  UNL1        0.1780
     22 N         -27.3390   47.7973   -2.1282 N.ar    1  UNL1       -0.2273
     23 C         -27.8255   47.3443   -3.3021 C.ar    1  UNL1        0.0885
     24 C         -29.2000   47.5071   -3.3294 C.ar    1  UNL1        0.0537
     25 C         -30.1287   47.0808   -4.4298 C.3     1  UNL1        0.0514
     26 C         -30.8545   49.0246   -0.3018 C.3     1  UNL1        0.0265
     27 C         -30.9128   48.4234   -1.7012 C.3     1  UNL1        0.1073
     28 C         -21.4171   51.7198   -9.1112 C.ar    1  UNL1        0.0221
     29 C         -20.7346   51.2934  -10.2573 C.ar    1  UNL1        0.0013
     30 C         -19.3403   51.2142  -10.2658 C.ar    1  UNL1       -0.0042
     31 C         -18.5819   51.5472   -9.1219 C.ar    1  UNL1       -0.0228
     32 C         -19.2858   51.9525   -7.9637 C.ar    1  UNL1       -0.0042
     33 C         -20.6812   52.0315   -7.9602 C.ar    1  UNL1        0.0013
     34 C         -17.0433   51.4464   -9.1718 C.3     1  UNL1        0.0189
     35 C         -16.5351   51.9957  -10.5226 C.3     1  UNL1        0.0044
     36 C         -16.4350   52.2755   -8.0195 C.3     1  UNL1        0.0044
     37 C         -16.5250   49.9950   -9.0293 C.3     1  UNL1        0.0044
@<TRIPOS>BOND
     1    26    27    1
     2    27    20    1
     3    20    21   ar
     4    21    22   ar
     5    22    23   ar
     6    23    19    1
     7    19    13    1
     8    13    14    1
     9    14    15    1
    10    15    16    1
    11    16     1    1
    12     1     2   ar
    13     2     3   ar
    14     3     4   ar
    15     4     5   ar
    16     5     6   ar
    17     6     7    1
    18     6     8   ar
    19     8    28    1
    20    28    29   ar
    21    29    30   ar
    22    30    31   ar
    23    31    34    1
    24    34    35    1
    25    34    36    1
    26    34    37    1
    27    31    32   ar
    28    32    33   ar
    29     8     9   ar
    30     9    10   ar
    31    16    17    1
    32    17    18    1
    33    23    24   ar
    34    24    25    1
    35    24    20   ar
    36    18    13    1
    37    10     1   ar
    38    10     5   ar
    39    33    28   ar
    40     7    11    1
    41     9    12    1
@<TRIPOS>MOLECULE
*****
 37 41 0 0 0
SMALL
GASTEIGER

@<TRIPOS>ATOM
      1 C         -25.5522   51.4460  -11.0526 C.ar    1  UNL1        0.1317
      2 C         -26.1539   51.7732  -12.2846 C.ar    1  UNL1        0.0286
      3 C         -27.4364   51.2892  -12.6028 C.ar    1  UNL1        0.0777
      4 C         -28.1189   50.4816  -11.6832 C.ar    1  UNL1        0.2970
      5 N         -27.5071   50.1890  -10.5062 N.ar    1  UNL1       -0.1224
      6 C         -27.9409   49.4828   -9.4503 C.ar    1  UNL1        0.2715
      7 S         -29.5844   48.7740   -9.3044 S.3     1  UNL1       -0.0718
      8 C         -26.9417   49.5265   -8.4811 C.ar    1  UNL1        0.1320
      9 N         -25.9013   50.2675   -8.9352 N.ar    1  UNL1       -0.2938
     10 C         -26.2844   50.6387  -10.1745 C.ar    1  UNL1        0.3126
     11 H         -30.1048   49.9653   -8.7658 H       1  UNL1        0.1129
     12 H         -25.0616   50.4842   -8.4692 H       1  UNL1        0.1718
     13 N         -21.6319   52.9505  -10.3485 N.3     1  UNL1       -0.2647
     14 C         -22.7101   53.8372  -10.8404 C.3     1  UNL1        0.0941
     15 C         -24.0686   53.3482  -10.3379 C.3     1  UNL1        0.1084
     16 N         -24.2483   51.9408  -10.7017 N.pl3   1  UNL1       -0.2988
     17 C         -23.1668   51.0105  -10.3719 C.3     1  UNL1        0.1084
     18 C         -21.8316   51.5783  -10.8608 C.3     1  UNL1        0.0941
     19 C         -20.3094   53.4549  -10.7711 C.3     1  UNL1        0.1200
     20 N         -17.3535   52.1585   -9.0284 N.ar    1  UNL1       -0.3128
     21 C         -18.1202   52.6695   -8.0437 C.ar    1  UNL1        0.1780
     22 N         -19.2786   53.1898   -8.5007 N.ar    1  UNL1       -0.2273
     23 C         -19.2385   52.9770   -9.8322 C.ar    1  UNL1        0.0885
     24 C         -18.0613   52.3285  -10.1640 C.ar    1  UNL1        0.0537
     25 C         -17.6035   51.9589  -11.5457 C.3     1  UNL1        0.0514
     26 C         -15.6358   51.5489   -7.3861 C.3     1  UNL1        0.0265
     27 C         -16.0534   51.5100   -8.8515 C.3     1  UNL1        0.1073
     28 C         -26.9653   48.9247   -7.1306 C.ar    1  UNL1        0.0221
     29 C         -26.8985   47.5328   -6.9916 C.ar    1  UNL1        0.0013
     30 C         -26.9346   46.9424   -5.7265 C.ar    1  UNL1       -0.0042
     31 C         -27.0519   47.7255   -4.5571 C.ar    1  UNL1       -0.0228
     32 C         -27.1433   49.1285   -4.7140 C.ar    1  UNL1       -0.0042
     33 C         -27.1055   49.7150   -5.9820 C.ar    1  UNL1        0.0013
     34 C         -27.0883   47.0350   -3.1780 C.3     1  UNL1        0.0189
     35 C         -27.4446   48.0733   -2.0920 C.3     1  UNL1        0.0044
     36 C         -28.1548   45.9180   -3.1892 C.3     1  UNL1        0.0044
     37 C         -25.7373   46.3893   -2.7865 C.3     1  UNL1        0.0044
@<TRIPOS>BOND
     1    26    27    1
     2    27    20    1
     3    20    21   ar
     4    21    22   ar
     5    22    23   ar
     6    23    19    1
     7    19    13    1
     8    13    14    1
     9    14    15    1
    10    15    16    1
    11    16     1    1
    12     1     2   ar
    13     2     3   ar
    14     3     4   ar
    15     4     5   ar
    16     5     6   ar
    17     6     7    1
    18     6     8   ar
    19     8    28    1
    20    28    29   ar
    21    29    30   ar
    22    30    31   ar
    23    31    34    1
    24    34    35    1
    25    34    36    1
    26    34    37    1
    27    31    32   ar
    28    32    33   ar
    29     8     9   ar
    30     9    10   ar
    31    16    17    1
    32    17    18    1
    33    23    24   ar
    34    24    25    1
    35    24    20   ar
    36    18    13    1
    37    10     1   ar
    38    10     5   ar
    39    33    28   ar
    40     7    11    1
    41     9    12    1
