@<TRIPOS>MOLECULE
*****
 62 67 0 0 0
SMALL
GASTEIGER

@<TRIPOS>ATOM
      1 C          11.8952   80.5883   24.6792 C.ar    1  UNL1        0.0001
      2 C          10.5936   80.6343   24.1542 C.ar    1  UNL1        0.0013
      3 C           9.9038   79.4555   23.8614 C.ar    1  UNL1        0.0147
      4 C          10.4971   78.2019   24.1008 C.ar    1  UNL1        0.0503
      5 C          11.7968   78.1594   24.6276 C.ar    1  UNL1        0.0147
      6 C          12.4877   79.3382   24.9196 C.ar    1  UNL1        0.0013
      7 C          13.9516   84.2713   25.5318 C.ar    1  UNL1        0.0503
      8 C          13.9924   83.2058   26.4484 C.ar    1  UNL1        0.0147
      9 C          13.3319   82.0064   26.1679 C.ar    1  UNL1        0.0013
     10 C          12.6349   81.8420   24.9594 C.ar    1  UNL1        0.0001
     11 C          12.6458   82.8863   24.0198 C.ar    1  UNL1        0.0013
     12 C          13.3067   84.0841   24.3011 C.ar    1  UNL1        0.0147
     13 C          14.4097   86.2627   27.0450 C.2     1  UNL1        0.2442
     14 O          13.9421   85.6972   28.0703 O.2     1  UNL1       -0.2730
     15 N          14.5680   85.5408   25.8113 N.am    1  UNL1       -0.2826
     16 H          14.9757   86.0624   25.0025 H       1  UNL1        0.1549
     17 C          13.3020   88.6992   25.2660 C.2     1  UNL1        0.2482
     18 O          12.3737   89.5077   24.9898 O.2     1  UNL1       -0.2727
     19 N          13.7243   88.5664   26.6408 N.am    1  UNL1       -0.2714
     20 C          13.1156   89.3434   27.7095 C.3     1  UNL1        0.0939
     21 C          13.7675   88.8641   28.9994 C.3     1  UNL1        0.0237
     22 C          15.0393   88.1384   28.5736 C.3     1  UNL1        0.0310
     23 C          14.8070   87.7138   27.1225 C.3     1  UNL1        0.1521
     24 C          13.9056   87.8631   24.1502 C.3     1  UNL1        0.1743
     25 C          13.2039   87.9994   22.8064 C.ar    1  UNL1        0.0044
     26 C          12.5003   86.8909   22.3010 C.ar    1  UNL1       -0.0022
     27 C          11.8494   86.9623   21.0660 C.ar    1  UNL1       -0.0003
     28 C          11.8821   88.1439   20.3244 C.ar    1  UNL1       -0.0000
     29 C          12.5861   89.2493   20.8056 C.ar    1  UNL1       -0.0003
     30 C          13.2545   89.1785   22.0320 C.ar    1  UNL1       -0.0022
     31 C          16.3142   87.1722   23.5589 C.2     1  UNL1        0.4023
     32 O          15.9476   86.0137   23.2280 O.2     1  UNL1       -0.2264
     33 N          15.3440   88.1363   24.0159 N.am    1  UNL1       -0.2606
     34 H          15.6629   89.0992   24.2623 H       1  UNL1        0.1535
     35 C          18.2990   88.5268   24.2164 C.3     1  UNL1        0.2573
     36 O          17.6751   87.4890   23.4702 O.3     1  UNL1       -0.4306
     37 N           9.8498   76.9659   23.7409 N.am    1  UNL1       -0.2825
     38 C          10.0148   75.7105   24.4232 C.2     1  UNL1        0.2451
     39 O          11.0033   75.5165   25.1801 O.2     1  UNL1       -0.2730
     40 H           9.2283   76.9744   22.9004 H       1  UNL1        0.1549
     41 C           9.0866   74.5567   24.1381 C.3     1  UNL1        0.1619
     42 C           9.2248   74.1080   22.6758 C.3     1  UNL1        0.0726
     43 S          10.3317   72.6643   22.4912 S.3     1  UNL1       -0.1666
     44 C           7.8049   73.8094   22.2009 C.3     1  UNL1        0.0342
     45 C           6.8971   74.6274   23.1076 C.3     1  UNL1        0.0948
     46 N           7.6815   74.9276   24.2968 N.am    1  UNL1       -0.2707
     47 C           7.0497   75.3515   25.5246 C.2     1  UNL1        0.2483
     48 O           5.8148   75.6138   25.5190 O.2     1  UNL1       -0.2727
     49 H           9.5733   71.8317   23.3373 H       1  UNL1        0.1023
     50 C           7.8073   75.4846   26.8304 C.3     1  UNL1        0.1743
     51 C           8.4119   76.8636   27.0564 C.ar    1  UNL1        0.0044
     52 C           7.7676   78.0622   26.6768 C.ar    1  UNL1       -0.0022
     53 C           8.3589   79.3009   26.9451 C.ar    1  UNL1       -0.0003
     54 C           9.5853   79.3651   27.6082 C.ar    1  UNL1       -0.0000
     55 C          10.2262   78.1900   28.0033 C.ar    1  UNL1       -0.0003
     56 C           9.6445   76.9482   27.7311 C.ar    1  UNL1       -0.0022
     57 N           6.9126   75.1547   27.9435 N.am    1  UNL1       -0.2606
     58 C           7.3473   74.3926   29.0756 C.2     1  UNL1        0.4023
     59 O           8.5503   74.0223   29.1707 O.2     1  UNL1       -0.2264
     60 H           5.8951   75.3847   27.8699 H       1  UNL1        0.1535
     61 O           6.4244   74.0616   30.0713 O.3     1  UNL1       -0.4306
     62 C           5.0305   74.3122   29.9379 C.3     1  UNL1        0.2573
@<TRIPOS>BOND
     1    35    36    1
     2    36    31    1
     3    31    32    2
     4    31    33   am
     5    33    24    1
     6    24    17    1
     7    17    18    2
     8    17    19   am
     9    19    20    1
    10    20    21    1
    11    21    22    1
    12    22    23    1
    13    23    13    1
    14    13    14    2
    15    13    15   am
    16    15     7    1
    17     7     8   ar
    18     8     9   ar
    19     9    10   ar
    20    10     1    1
    21     1     2   ar
    22     2     3   ar
    23     3     4   ar
    24     4    37    1
    25    37    38   am
    26    38    39    2
    27    38    41    1
    28    41    42    1
    29    42    43    1
    30    42    44    1
    31    44    45    1
    32    45    46    1
    33    46    47   am
    34    47    48    2
    35    47    50    1
    36    50    57    1
    37    57    58   am
    38    58    59    2
    39    58    61    1
    40    61    62    1
    41    50    51    1
    42    51    52   ar
    43    52    53   ar
    44    53    54   ar
    45    54    55   ar
    46    55    56   ar
    47     4     5   ar
    48     5     6   ar
    49    10    11   ar
    50    11    12   ar
    51    24    25    1
    52    25    26   ar
    53    26    27   ar
    54    27    28   ar
    55    28    29   ar
    56    29    30   ar
    57    23    19    1
    58    12     7   ar
    59    30    25   ar
    60     6     1   ar
    61    46    41    1
    62    56    51   ar
    63    33    34    1
    64    15    16    1
    65    37    40    1
    66    43    49    1
    67    57    60    1
@<TRIPOS>MOLECULE
*****
 62 67 0 0 0
SMALL
GASTEIGER

@<TRIPOS>ATOM
      1 C          11.9746   80.9322   24.6667 C.ar    1  UNL1        0.0001
      2 C          13.3654   80.8610   24.8463 C.ar    1  UNL1        0.0013
      3 C          14.1197   82.0239   25.0190 C.ar    1  UNL1        0.0147
      4 C          13.4959   83.2854   25.0297 C.ar    1  UNL1        0.0503
      5 C          12.1058   83.3530   24.8524 C.ar    1  UNL1        0.0147
      6 C          11.3508   82.1902   24.6784 C.ar    1  UNL1        0.0013
      7 C           9.6228   77.3669   24.1389 C.ar    1  UNL1        0.0503
      8 C           9.2353   78.5714   23.5255 C.ar    1  UNL1        0.0147
      9 C          10.0035   79.7273   23.6896 C.ar    1  UNL1        0.0013
     10 C          11.1824   79.6976   24.4529 C.ar    1  UNL1        0.0001
     11 C          11.5988   78.4793   25.0150 C.ar    1  UNL1        0.0013
     12 C          10.8305   77.3248   24.8498 C.ar    1  UNL1        0.0147
     13 C           8.4522   75.5479   22.8027 C.2     1  UNL1        0.2442
     14 O           9.0302   75.8520   21.7242 O.2     1  UNL1       -0.2730
     15 N           8.8269   76.1723   24.0427 N.am    1  UNL1       -0.2826
     16 H           8.3201   75.8651   24.9036 H       1  UNL1        0.1549
     17 C           6.1055   75.2152   20.6323 C.2     1  UNL1        0.2482
     18 O           5.7367   74.8704   19.4761 O.2     1  UNL1       -0.2727
     19 N           6.8888   74.2909   21.4184 N.am    1  UNL1       -0.2714
     20 C           7.2550   72.9751   20.9172 C.3     1  UNL1        0.0939
     21 C           8.1345   72.3480   21.9903 C.3     1  UNL1        0.0237
     22 C           7.8791   73.1570   23.2574 C.3     1  UNL1        0.0310
     23 C           7.3564   74.5141   22.7832 C.3     1  UNL1        0.1521
     24 C           5.7524   76.6055   21.1330 C.3     1  UNL1        0.1743
     25 C           6.2501   77.7415   20.2506 C.ar    1  UNL1        0.0044
     26 C           7.5312   78.2692   20.4947 C.ar    1  UNL1       -0.0022
     27 C           8.0286   79.3208   19.7197 C.ar    1  UNL1       -0.0003
     28 C           7.2593   79.8520   18.6837 C.ar    1  UNL1       -0.0000
     29 C           5.9811   79.3483   18.4361 C.ar    1  UNL1       -0.0003
     30 C           5.4706   78.3085   19.2195 C.ar    1  UNL1       -0.0022
     31 C           3.6631   76.4742   22.6318 C.2     1  UNL1        0.4023
     32 O           4.3499   76.1487   23.6360 O.2     1  UNL1       -0.2264
     33 N           4.3053   76.7225   21.3646 N.am    1  UNL1       -0.2606
     34 H           3.7226   77.0153   20.5495 H       1  UNL1        0.1535
     35 C           1.5362   77.7633   22.4866 C.3     1  UNL1        0.2573
     36 O           2.2757   76.5851   22.7834 O.3     1  UNL1       -0.4306
     37 N          14.2468   84.5114   25.1277 N.am    1  UNL1       -0.2825
     38 C          13.7734   85.8111   24.7334 C.2     1  UNL1        0.2451
     39 O          12.7906   85.9268   23.9533 O.2     1  UNL1       -0.2730
     40 H          15.2248   84.4496   25.4915 H       1  UNL1        0.1549
     41 C          14.5281   87.0540   25.1329 C.3     1  UNL1        0.1619
     42 C          14.0605   87.5437   26.5114 C.3     1  UNL1        0.0726
     43 S          15.1676   86.9941   27.8590 S.3     1  UNL1       -0.1666
     44 C          13.9924   89.0653   26.4064 C.3     1  UNL1        0.0342
     45 C          13.8174   89.3587   24.9237 C.3     1  UNL1        0.0948
     46 N          14.2759   88.1687   24.2214 N.am    1  UNL1       -0.2707
     47 C          14.6155   88.2103   22.8180 C.2     1  UNL1        0.2483
     48 O          14.3628   89.2560   22.1575 O.2     1  UNL1       -0.2727
     49 H          16.3132   87.6155   27.3243 H       1  UNL1        0.1023
     50 C          15.2769   87.0498   22.1022 C.3     1  UNL1        0.1743
     51 C          14.4316   86.4481   20.9880 C.ar    1  UNL1        0.0044
     52 C          13.1639   86.9520   20.6209 C.ar    1  UNL1       -0.0022
     53 C          12.4515   86.3776   19.5632 C.ar    1  UNL1       -0.0003
     54 C          12.9958   85.3104   18.8471 C.ar    1  UNL1       -0.0000
     55 C          14.2540   84.8120   19.1881 C.ar    1  UNL1       -0.0003
     56 C          14.9679   85.3764   20.2495 C.ar    1  UNL1       -0.0022
     57 N          16.5640   87.4898   21.5562 N.am    1  UNL1       -0.2606
     58 C          17.6555   87.8879   22.3938 C.2     1  UNL1        0.4023
     59 O          17.5529   87.8191   23.6500 O.2     1  UNL1       -0.2264
     60 H          16.6649   87.6243   20.5241 H       1  UNL1        0.1535
     61 O          18.8333   88.3555   21.8047 O.3     1  UNL1       -0.4306
     62 C          18.8679   89.5073   20.9706 C.3     1  UNL1        0.2573
@<TRIPOS>BOND
     1    35    36    1
     2    36    31    1
     3    31    32    2
     4    31    33   am
     5    33    24    1
     6    24    17    1
     7    17    18    2
     8    17    19   am
     9    19    20    1
    10    20    21    1
    11    21    22    1
    12    22    23    1
    13    23    13    1
    14    13    14    2
    15    13    15   am
    16    15     7    1
    17     7     8   ar
    18     8     9   ar
    19     9    10   ar
    20    10     1    1
    21     1     2   ar
    22     2     3   ar
    23     3     4   ar
    24     4    37    1
    25    37    38   am
    26    38    39    2
    27    38    41    1
    28    41    42    1
    29    42    43    1
    30    42    44    1
    31    44    45    1
    32    45    46    1
    33    46    47   am
    34    47    48    2
    35    47    50    1
    36    50    57    1
    37    57    58   am
    38    58    59    2
    39    58    61    1
    40    61    62    1
    41    50    51    1
    42    51    52   ar
    43    52    53   ar
    44    53    54   ar
    45    54    55   ar
    46    55    56   ar
    47     4     5   ar
    48     5     6   ar
    49    10    11   ar
    50    11    12   ar
    51    24    25    1
    52    25    26   ar
    53    26    27   ar
    54    27    28   ar
    55    28    29   ar
    56    29    30   ar
    57    23    19    1
    58    12     7   ar
    59    30    25   ar
    60     6     1   ar
    61    46    41    1
    62    56    51   ar
    63    33    34    1
    64    15    16    1
    65    37    40    1
    66    43    49    1
    67    57    60    1
@<TRIPOS>MOLECULE
*****
 62 67 0 0 0
SMALL
GASTEIGER

@<TRIPOS>ATOM
      1 C          12.1613   80.6394   24.7469 C.ar    1  UNL1        0.0001
      2 C          11.4543   81.8470   24.6305 C.ar    1  UNL1        0.0013
      3 C          12.1129   83.0715   24.7643 C.ar    1  UNL1        0.0147
      4 C          13.4990   83.1150   25.0043 C.ar    1  UNL1        0.0503
      5 C          14.2030   81.9067   25.1177 C.ar    1  UNL1        0.0147
      6 C          13.5445   80.6815   24.9852 C.ar    1  UNL1        0.0013
      7 C          10.1029   76.8849   24.3143 C.ar    1  UNL1        0.0503
      8 C          11.5033   76.9179   24.4364 C.ar    1  UNL1        0.0147
      9 C          12.1714   78.1363   24.5856 C.ar    1  UNL1        0.0013
     10 C          11.4526   79.3423   24.6350 C.ar    1  UNL1        0.0001
     11 C          10.0497   79.3015   24.5728 C.ar    1  UNL1        0.0013
     12 C           9.3833   78.0831   24.4242 C.ar    1  UNL1        0.0147
     13 C           8.3264   75.4959   23.1397 C.2     1  UNL1        0.2442
     14 O           8.1440   76.3479   22.2283 O.2     1  UNL1       -0.2730
     15 N           9.3854   75.6566   24.0992 N.am    1  UNL1       -0.2826
     16 H           9.4935   74.9076   24.8201 H       1  UNL1        0.1549
     17 C           5.2557   75.2939   22.2135 C.2     1  UNL1        0.2482
     18 O           4.4036   75.2264   21.2855 O.2     1  UNL1       -0.2727
     19 N           6.3738   74.3798   22.2006 N.am    1  UNL1       -0.2714
     20 C           6.5379   73.3821   21.1546 C.3     1  UNL1        0.0939
     21 C           7.8587   72.6828   21.4464 C.3     1  UNL1        0.0237
     22 C           8.1869   73.0112   22.8989 C.3     1  UNL1        0.0310
     23 C           7.4192   74.2956   23.2162 C.3     1  UNL1        0.1521
     24 C           5.0982   76.3640   23.2804 C.3     1  UNL1        0.1743
     25 C           3.9349   77.3189   23.0525 C.ar    1  UNL1        0.0044
     26 C           2.8445   77.2723   23.9403 C.ar    1  UNL1       -0.0022
     27 C           1.7470   78.1204   23.7664 C.ar    1  UNL1       -0.0003
     28 C           1.7279   79.0339   22.7118 C.ar    1  UNL1       -0.0000
     29 C           2.7962   79.0845   21.8145 C.ar    1  UNL1       -0.0003
     30 C           3.8890   78.2263   21.9723 C.ar    1  UNL1       -0.0022
     31 C           5.6867   76.2765   25.7853 C.2     1  UNL1        0.4023
     32 O           6.3808   77.3242   25.7040 O.2     1  UNL1       -0.2264
     33 N           5.0188   75.7573   24.6173 N.am    1  UNL1       -0.2606
     34 H           4.4278   74.9019   24.7092 H       1  UNL1        0.1535
     35 C           5.9358   74.2812   27.2562 C.3     1  UNL1        0.2573
     36 O           5.5862   75.6411   27.0288 O.3     1  UNL1       -0.4306
     37 N          14.2005   84.3542   25.2248 N.am    1  UNL1       -0.2825
     38 C          13.7202   85.6593   24.8576 C.2     1  UNL1        0.2451
     39 O          12.8012   85.7885   24.0053 O.2     1  UNL1       -0.2730
     40 H          15.1470   84.3002   25.6651 H       1  UNL1        0.1549
     41 C          14.4004   86.8998   25.3794 C.3     1  UNL1        0.1619
     42 C          13.8907   87.2366   26.7885 C.3     1  UNL1        0.0726
     43 S          15.0110   86.6278   28.0992 S.3     1  UNL1       -0.1666
     44 C          13.7399   88.7555   26.8195 C.3     1  UNL1        0.0342
     45 C          13.5658   89.1722   25.3665 C.3     1  UNL1        0.0948
     46 N          14.0975   88.0772   24.5678 N.am    1  UNL1       -0.2707
     47 C          14.4502   88.2641   23.1795 C.2     1  UNL1        0.2483
     48 O          14.1477   89.3502   22.6116 O.2     1  UNL1       -0.2727
     49 H          16.1265   87.3561   27.6414 H       1  UNL1        0.1023
     50 C          15.1830   87.2107   22.3733 C.3     1  UNL1        0.1743
     51 C          14.3649   86.6285   21.2287 C.ar    1  UNL1        0.0044
     52 C          13.0910   87.1167   20.8620 C.ar    1  UNL1       -0.0022
     53 C          12.4046   86.5628   19.7766 C.ar    1  UNL1       -0.0003
     54 C          12.9811   85.5323   19.0327 C.ar    1  UNL1       -0.0000
     55 C          14.2458   85.0502   19.3733 C.ar    1  UNL1       -0.0003
     56 C          14.9339   85.5940   20.4621 C.ar    1  UNL1       -0.0022
     57 N          16.4242   87.7839   21.8449 N.am    1  UNL1       -0.2606
     58 C          17.6630   87.7201   22.5610 C.2     1  UNL1        0.4023
     59 O          17.7307   87.1107   23.6643 O.2     1  UNL1       -0.2264
     60 H          16.3943   88.3539   20.9687 H       1  UNL1        0.1535
     61 O          18.7940   88.3424   22.0259 O.3     1  UNL1       -0.4306
     62 C          18.7111   89.3804   21.0568 C.3     1  UNL1        0.2573
@<TRIPOS>BOND
     1    35    36    1
     2    36    31    1
     3    31    32    2
     4    31    33   am
     5    33    24    1
     6    24    17    1
     7    17    18    2
     8    17    19   am
     9    19    20    1
    10    20    21    1
    11    21    22    1
    12    22    23    1
    13    23    13    1
    14    13    14    2
    15    13    15   am
    16    15     7    1
    17     7     8   ar
    18     8     9   ar
    19     9    10   ar
    20    10     1    1
    21     1     2   ar
    22     2     3   ar
    23     3     4   ar
    24     4    37    1
    25    37    38   am
    26    38    39    2
    27    38    41    1
    28    41    42    1
    29    42    43    1
    30    42    44    1
    31    44    45    1
    32    45    46    1
    33    46    47   am
    34    47    48    2
    35    47    50    1
    36    50    57    1
    37    57    58   am
    38    58    59    2
    39    58    61    1
    40    61    62    1
    41    50    51    1
    42    51    52   ar
    43    52    53   ar
    44    53    54   ar
    45    54    55   ar
    46    55    56   ar
    47     4     5   ar
    48     5     6   ar
    49    10    11   ar
    50    11    12   ar
    51    24    25    1
    52    25    26   ar
    53    26    27   ar
    54    27    28   ar
    55    28    29   ar
    56    29    30   ar
    57    23    19    1
    58    12     7   ar
    59    30    25   ar
    60     6     1   ar
    61    46    41    1
    62    56    51   ar
    63    33    34    1
    64    15    16    1
    65    37    40    1
    66    43    49    1
    67    57    60    1
@<TRIPOS>MOLECULE
*****
 62 67 0 0 0
SMALL
GASTEIGER

@<TRIPOS>ATOM
      1 C          12.9393   81.4226   25.0465 C.ar    1  UNL1        0.0001
      2 C          13.8281   81.8010   26.0656 C.ar    1  UNL1        0.0013
      3 C          14.2298   83.1321   26.1997 C.ar    1  UNL1        0.0147
      4 C          13.7391   84.1184   25.3238 C.ar    1  UNL1        0.0503
      5 C          12.8493   83.7375   24.3081 C.ar    1  UNL1        0.0147
      6 C          12.4481   82.4060   24.1727 C.ar    1  UNL1        0.0013
      7 C          11.7597   77.2988   24.6954 C.ar    1  UNL1        0.0503
      8 C          10.8388   78.3269   24.4270 C.ar    1  UNL1        0.0147
      9 C          11.2240   79.6662   24.5325 C.ar    1  UNL1        0.0013
     10 C          12.5402   80.0037   24.8890 C.ar    1  UNL1        0.0001
     11 C          13.4737   78.9749   25.0982 C.ar    1  UNL1        0.0013
     12 C          13.0876   77.6370   24.9919 C.ar    1  UNL1        0.0147
     13 C          11.4379   75.0916   23.4749 C.2     1  UNL1        0.2442
     14 O          12.0806   75.4653   22.4566 O.2     1  UNL1       -0.2730
     15 N          11.3847   75.9104   24.6559 N.am    1  UNL1       -0.2826
     16 H          10.8481   75.5370   25.4714 H       1  UNL1        0.1549
     17 C           8.7698   74.3399   21.8486 C.2     1  UNL1        0.2482
     18 O           8.2041   74.0792   20.7515 O.2     1  UNL1       -0.2727
     19 N           9.9707   73.6194   22.2018 N.am    1  UNL1       -0.2714
     20 C          10.5378   72.5995   21.3331 C.3     1  UNL1        0.0939
     21 C          11.8236   72.1419   22.0084 C.3     1  UNL1        0.0237
     22 C          11.7167   72.6070   23.4567 C.3     1  UNL1        0.0310
     23 C          10.7200   73.7674   23.4460 C.3     1  UNL1        0.1521
     24 C           8.1934   75.4335   22.7318 C.3     1  UNL1        0.1743
     25 C           7.7475   76.6820   21.9840 C.ar    1  UNL1        0.0044
     26 C           8.7213   77.6292   21.6183 C.ar    1  UNL1       -0.0022
     27 C           8.3605   78.7975   20.9410 C.ar    1  UNL1       -0.0003
     28 C           7.0253   79.0308   20.6093 C.ar    1  UNL1       -0.0000
     29 C           6.0447   78.1071   20.9757 C.ar    1  UNL1       -0.0003
     30 C           6.3968   76.9449   21.6693 C.ar    1  UNL1       -0.0022
     31 C           7.2015   74.6773   24.9841 C.2     1  UNL1        0.4023
     32 O           8.2702   74.9441   25.5946 O.2     1  UNL1       -0.2264
     33 N           7.1013   74.9078   23.5640 N.am    1  UNL1       -0.2606
     34 H           6.1995   74.7039   23.0795 H       1  UNL1        0.1535
     35 C           5.8522   74.4994   27.0708 C.3     1  UNL1        0.2573
     36 O           6.1292   74.1566   25.7185 O.3     1  UNL1       -0.4306
     37 N          14.1881   85.4865   25.3807 N.am    1  UNL1       -0.2825
     38 C          14.8837   86.1785   24.3290 C.2     1  UNL1        0.2451
     39 O          15.4568   85.5371   23.4082 O.2     1  UNL1       -0.2730
     40 H          14.0173   86.0132   26.2673 H       1  UNL1        0.1549
     41 C          15.0594   87.6752   24.3835 C.3     1  UNL1        0.1619
     42 C          14.6794   88.2080   25.7729 C.3     1  UNL1        0.0726
     43 S          16.1383   88.4592   26.8463 S.3     1  UNL1       -0.1666
     44 C          13.9188   89.5077   25.5214 C.3     1  UNL1        0.0342
     45 C          13.3663   89.3836   24.1091 C.3     1  UNL1        0.0948
     46 N          14.1744   88.3684   23.4490 N.am    1  UNL1       -0.2707
     47 C          14.1997   88.2490   22.0097 C.2     1  UNL1        0.2483
     48 O          13.3904   88.9336   21.3241 O.2     1  UNL1       -0.2727
     49 H          16.7661   89.3683   25.9724 H       1  UNL1        0.1023
     50 C          15.1698   87.3404   21.2816 C.3     1  UNL1        0.1743
     51 C          14.5053   86.3930   20.2921 C.ar    1  UNL1        0.0044
     52 C          13.1546   86.5116   19.8954 C.ar    1  UNL1       -0.0022
     53 C          12.6120   85.6313   18.9539 C.ar    1  UNL1       -0.0003
     54 C          13.4067   84.6363   18.3826 C.ar    1  UNL1       -0.0000
     55 C          14.7470   84.5168   18.7529 C.ar    1  UNL1       -0.0003
     56 C          15.2936   85.3885   19.6995 C.ar    1  UNL1       -0.0022
     57 N          16.1651   88.1582   20.5824 N.am    1  UNL1       -0.2606
     58 C          17.4623   88.4205   21.1302 C.2     1  UNL1        0.4023
     59 O          17.8077   87.9009   22.2274 O.2     1  UNL1       -0.2264
     60 H          15.8934   88.6599   19.7061 H       1  UNL1        0.1535
     61 O          18.3391   89.2599   20.4378 O.3     1  UNL1       -0.4306
     62 C          19.6748   89.4945   20.8672 C.3     1  UNL1        0.2573
@<TRIPOS>BOND
     1    35    36    1
     2    36    31    1
     3    31    32    2
     4    31    33   am
     5    33    24    1
     6    24    17    1
     7    17    18    2
     8    17    19   am
     9    19    20    1
    10    20    21    1
    11    21    22    1
    12    22    23    1
    13    23    13    1
    14    13    14    2
    15    13    15   am
    16    15     7    1
    17     7     8   ar
    18     8     9   ar
    19     9    10   ar
    20    10     1    1
    21     1     2   ar
    22     2     3   ar
    23     3     4   ar
    24     4    37    1
    25    37    38   am
    26    38    39    2
    27    38    41    1
    28    41    42    1
    29    42    43    1
    30    42    44    1
    31    44    45    1
    32    45    46    1
    33    46    47   am
    34    47    48    2
    35    47    50    1
    36    50    57    1
    37    57    58   am
    38    58    59    2
    39    58    61    1
    40    61    62    1
    41    50    51    1
    42    51    52   ar
    43    52    53   ar
    44    53    54   ar
    45    54    55   ar
    46    55    56   ar
    47     4     5   ar
    48     5     6   ar
    49    10    11   ar
    50    11    12   ar
    51    24    25    1
    52    25    26   ar
    53    26    27   ar
    54    27    28   ar
    55    28    29   ar
    56    29    30   ar
    57    23    19    1
    58    12     7   ar
    59    30    25   ar
    60     6     1   ar
    61    46    41    1
    62    56    51   ar
    63    33    34    1
    64    15    16    1
    65    37    40    1
    66    43    49    1
    67    57    60    1
@<TRIPOS>MOLECULE
*****
 62 67 0 0 0
SMALL
GASTEIGER

@<TRIPOS>ATOM
      1 C          12.6071   80.8999   25.0263 C.ar    1  UNL1        0.0001
      2 C          13.9080   81.0789   25.5235 C.ar    1  UNL1        0.0013
      3 C          14.4907   82.3481   25.5478 C.ar    1  UNL1        0.0147
      4 C          13.7780   83.4707   25.0869 C.ar    1  UNL1        0.0503
      5 C          12.4775   83.2889   24.5929 C.ar    1  UNL1        0.0147
      6 C          11.8944   82.0194   24.5673 C.ar    1  UNL1        0.0013
      7 C          10.8117   76.9965   24.7797 C.ar    1  UNL1        0.0503
      8 C          12.1322   77.2005   24.3419 C.ar    1  UNL1        0.0147
      9 C          12.7186   78.4661   24.4299 C.ar    1  UNL1        0.0013
     10 C          12.0044   79.5466   24.9739 C.ar    1  UNL1        0.0001
     11 C          10.7069   79.3264   25.4653 C.ar    1  UNL1        0.0013
     12 C          10.1223   78.0611   25.3773 C.ar    1  UNL1        0.0147
     13 C           8.9989   75.4901   23.8260 C.2     1  UNL1        0.2442
     14 O           8.6527   76.3238   22.9458 O.2     1  UNL1       -0.2730
     15 N          10.1540   75.7235   24.6502 N.am    1  UNL1       -0.2826
     16 H          10.3968   74.9868   25.3507 H       1  UNL1        0.1549
     17 C           6.2963   75.1305   25.5275 C.2     1  UNL1        0.2482
     18 O           5.0561   75.3268   25.6500 O.2     1  UNL1       -0.2727
     19 N           6.7938   74.5641   24.2956 N.am    1  UNL1       -0.2714
     20 C           5.9051   74.2078   23.2003 C.3     1  UNL1        0.0939
     21 C           6.8052   73.7288   22.0694 C.3     1  UNL1        0.0237
     22 C           8.1499   73.4163   22.7171 C.3     1  UNL1        0.0310
     23 C           8.1868   74.2344   24.0090 C.3     1  UNL1        0.1521
     24 C           7.2215   75.5414   26.6604 C.3     1  UNL1        0.1743
     25 C           6.7843   76.7897   27.4138 C.ar    1  UNL1        0.0044
     26 C           7.6077   77.9291   27.3599 C.ar    1  UNL1       -0.0022
     27 C           7.2558   79.0959   28.0445 C.ar    1  UNL1       -0.0003
     28 C           6.0724   79.1452   28.7822 C.ar    1  UNL1       -0.0000
     29 C           5.2502   78.0194   28.8563 C.ar    1  UNL1       -0.0003
     30 C           5.6056   76.8433   28.1885 C.ar    1  UNL1       -0.0022
     31 C           8.3373   74.4605   28.7135 C.2     1  UNL1        0.4023
     32 O           8.9930   75.5064   28.9629 O.2     1  UNL1       -0.2264
     33 N           7.4353   74.4217   27.5889 N.am    1  UNL1       -0.2606
     34 H           6.8819   73.5545   27.4124 H       1  UNL1        0.1535
     35 C           9.4366   73.3094   30.6301 C.3     1  UNL1        0.2573
     36 O           8.5104   73.3523   29.5515 O.3     1  UNL1       -0.4306
     37 N          14.3709   84.7825   25.0236 N.am    1  UNL1       -0.2825
     38 C          13.7018   85.9780   24.5855 C.2     1  UNL1        0.2451
     39 O          12.6479   85.9086   23.8984 O.2     1  UNL1       -0.2730
     40 H          15.3768   84.8702   25.2941 H       1  UNL1        0.1549
     41 C          14.3227   87.3321   24.8199 C.3     1  UNL1        0.1619
     42 C          13.8091   87.9354   26.1356 C.3     1  UNL1        0.0726
     43 S          14.9704   87.6727   27.5234 S.3     1  UNL1       -0.1666
     44 C          13.5816   89.4173   25.8476 C.3     1  UNL1        0.0342
     45 C          13.3737   89.5075   24.3430 C.3     1  UNL1        0.0948
     46 N          13.9532   88.2947   23.7837 N.am    1  UNL1       -0.2707
     47 C          14.2837   88.1994   22.3808 C.2     1  UNL1        0.2483
     48 O          13.9214   89.1246   21.6020 O.2     1  UNL1       -0.2727
     49 H          16.0434   88.3397   26.9003 H       1  UNL1        0.1023
     50 C          15.0619   87.0352   21.8014 C.3     1  UNL1        0.1743
     51 C          14.3391   86.3075   20.6761 C.ar    1  UNL1        0.0044
     52 C          13.0487   86.6661   20.2266 C.ar    1  UNL1       -0.0022
     53 C          12.4524   85.9813   19.1629 C.ar    1  UNL1       -0.0003
     54 C          13.1357   84.9466   18.5223 C.ar    1  UNL1       -0.0000
     55 C          14.4175   84.5914   18.9451 C.ar    1  UNL1       -0.0003
     56 C          15.0161   85.2666   20.0130 C.ar    1  UNL1       -0.0022
     57 N          16.3602   87.5147   21.3188 N.am    1  UNL1       -0.2606
     58 C          17.4479   87.8029   22.2051 C.2     1  UNL1        0.4023
     59 O          17.3312   87.5978   23.4450 O.2     1  UNL1       -0.2264
     60 H          16.4736   87.7606   20.3088 H       1  UNL1        0.1535
     61 O          18.6376   88.3162   21.6818 O.3     1  UNL1       -0.4306
     62 C          18.6779   89.4881   20.8766 C.3     1  UNL1        0.2573
@<TRIPOS>BOND
     1    35    36    1
     2    36    31    1
     3    31    32    2
     4    31    33   am
     5    33    24    1
     6    24    17    1
     7    17    18    2
     8    17    19   am
     9    19    20    1
    10    20    21    1
    11    21    22    1
    12    22    23    1
    13    23    13    1
    14    13    14    2
    15    13    15   am
    16    15     7    1
    17     7     8   ar
    18     8     9   ar
    19     9    10   ar
    20    10     1    1
    21     1     2   ar
    22     2     3   ar
    23     3     4   ar
    24     4    37    1
    25    37    38   am
    26    38    39    2
    27    38    41    1
    28    41    42    1
    29    42    43    1
    30    42    44    1
    31    44    45    1
    32    45    46    1
    33    46    47   am
    34    47    48    2
    35    47    50    1
    36    50    57    1
    37    57    58   am
    38    58    59    2
    39    58    61    1
    40    61    62    1
    41    50    51    1
    42    51    52   ar
    43    52    53   ar
    44    53    54   ar
    45    54    55   ar
    46    55    56   ar
    47     4     5   ar
    48     5     6   ar
    49    10    11   ar
    50    11    12   ar
    51    24    25    1
    52    25    26   ar
    53    26    27   ar
    54    27    28   ar
    55    28    29   ar
    56    29    30   ar
    57    23    19    1
    58    12     7   ar
    59    30    25   ar
    60     6     1   ar
    61    46    41    1
    62    56    51   ar
    63    33    34    1
    64    15    16    1
    65    37    40    1
    66    43    49    1
    67    57    60    1
