@<TRIPOS>MOLECULE
*****
 51 56 0 0 0
SMALL
GASTEIGER

@<TRIPOS>ATOM
      1 O         -61.1295  -42.5666  -19.8016 O.2     1  UNL1       -0.2701
      2 C         -61.8651  -42.1328  -20.7295 C.2     1  UNL1        0.2483
      3 N         -63.0279  -41.3413  -20.4212 N.am    1  UNL1       -0.2945
      4 H         -63.5674  -40.9187  -21.2096 H       1  UNL1        0.1501
      5 C         -61.4941  -42.4162  -22.1322 C.ar    1  UNL1        0.0808
      6 C         -60.2242  -42.9443  -22.4175 C.ar    1  UNL1        0.0080
      7 C         -59.8463  -43.2096  -23.7360 C.ar    1  UNL1        0.0148
      8 C         -60.7354  -42.9625  -24.7921 C.ar    1  UNL1        0.0502
      9 C         -62.0099  -42.4493  -24.5097 C.ar    1  UNL1        0.0443
     10 C         -62.3920  -42.1817  -23.1911 C.ar    1  UNL1        0.1457
     11 F         -63.6545  -41.7446  -22.9528 F       1  UNL1       -0.2040
     12 N         -60.3410  -43.2264  -26.1499 N.pl3   1  UNL1       -0.3036
     13 C         -59.9238  -42.1284  -27.0249 C.3     1  UNL1        0.1123
     14 C         -60.6126  -42.2662  -28.3803 C.3     1  UNL1        0.1126
     15 N         -60.3704  -43.5947  -28.9662 N.pl3   1  UNL1       -0.2968
     16 C         -59.8894  -44.7082  -28.1158 C.3     1  UNL1        0.1924
     17 C         -60.4357  -44.5950  -26.6754 C.3     1  UNL1        0.1221
     18 C         -60.3716  -43.6990  -30.4067 C.ar    1  UNL1        0.0492
     19 C         -59.2531  -44.2032  -31.0915 C.ar    1  UNL1        0.0154
     20 C         -59.2610  -44.2952  -32.4854 C.ar    1  UNL1        0.0135
     21 C         -60.3808  -43.8809  -33.2141 C.ar    1  UNL1        0.0683
     22 CL        -60.3527  -44.0121  -34.9673 Cl      1  UNL1       -0.0814
     23 C         -61.5009  -43.3678  -32.5391 C.ar    1  UNL1        0.0694
     24 CL        -62.9284  -42.8345  -33.4165 Cl      1  UNL1       -0.0813
     25 C         -61.4908  -43.2766  -31.1423 C.ar    1  UNL1        0.0268
     26 C         -60.2785  -46.0504  -28.6804 C.2     1  UNL1        0.3337
     27 O         -61.4942  -46.3624  -28.8006 O.2     1  UNL1       -0.2484
     28 O         -59.2906  -46.9573  -29.0506 O.3     1  UNL1       -0.4790
     29 H         -59.5342  -47.8654  -29.4275 H       1  UNL1        0.2951
     30 C         -63.4369  -40.9613  -19.0597 C.3     1  UNL1        0.1535
     31 C         -63.2267  -39.4871  -18.8036 C.2     1  UNL1        0.2443
     32 O         -62.9355  -39.0789  -17.6458 O.2     1  UNL1       -0.2730
     33 N         -63.4474  -38.5427  -19.8635 N.am    1  UNL1       -0.2825
     34 H         -64.0329  -38.8480  -20.6738 H       1  UNL1        0.1549
     35 C         -62.9971  -37.1775  -19.8309 C.ar    1  UNL1        0.0535
     36 C         -62.1365  -36.7114  -20.8341 C.ar    1  UNL1        0.0353
     37 C         -61.6776  -35.3926  -20.7942 C.ar    1  UNL1        0.1002
     38 N         -62.0513  -34.5710  -19.7779 N.ar    1  UNL1       -0.2422
     39 C         -62.8691  -34.9995  -18.7803 C.ar    1  UNL1        0.1002
     40 C         -63.3516  -36.3108  -18.7828 C.ar    1  UNL1        0.0353
     41 C         -64.8935  -41.3799  -18.7701 C.3     1  UNL1        0.0569
     42 C         -65.5751  -41.8872  -20.0081 C.ar    1  UNL1       -0.0017
     43 C         -65.9359  -43.2047  -20.2762 C.ar    1  UNL1        0.0681
     44 N         -66.6069  -43.2809  -21.4481 N.ar    1  UNL1       -0.3523
     45 C         -66.6817  -42.0226  -21.9159 C.ar    1  UNL1        0.0563
     46 C         -67.3006  -41.5925  -23.0888 C.ar    1  UNL1        0.0170
     47 C         -67.2774  -40.2156  -23.3776 C.ar    1  UNL1        0.0015
     48 C         -66.6466  -39.3096  -22.4960 C.ar    1  UNL1        0.0001
     49 C         -66.0320  -39.7722  -21.3181 C.ar    1  UNL1        0.0012
     50 C         -66.0672  -41.1430  -21.0618 C.ar    1  UNL1        0.0131
     51 H         -66.9997  -44.1424  -21.8884 H       1  UNL1        0.1660
@<TRIPOS>BOND
     1     1     2    2
     2     2     3   am
     3     3    30    1
     4    30    41    1
     5    41    42    1
     6    42    43   ar
     7    43    44   ar
     8    44    45   ar
     9    45    46   ar
    10    46    47   ar
    11    47    48   ar
    12    48    49   ar
    13    49    50   ar
    14    30    31    1
    15    31    32    2
    16    31    33   am
    17    33    35    1
    18    35    36   ar
    19    36    37   ar
    20    37    38   ar
    21    38    39   ar
    22    39    40   ar
    23     2     5    1
    24     5     6   ar
    25     6     7   ar
    26     7     8   ar
    27     8    12    1
    28    12    13    1
    29    13    14    1
    30    14    15    1
    31    15    18    1
    32    18    19   ar
    33    19    20   ar
    34    20    21   ar
    35    21    22    1
    36    21    23   ar
    37    23    24    1
    38    23    25   ar
    39    15    16    1
    40    16    26    1
    41    26    27    2
    42    26    28    1
    43    16    17    1
    44     8     9   ar
    45     9    10   ar
    46    10    11    1
    47    50    42   ar
    48    40    35   ar
    49    10     5   ar
    50    50    45   ar
    51    17    12    1
    52    25    18   ar
    53     3     4    1
    54    44    51    1
    55    33    34    1
    56    28    29    1
@<TRIPOS>MOLECULE
*****
 51 56 0 0 0
SMALL
GASTEIGER

@<TRIPOS>ATOM
      1 O         -60.7684  -42.2138  -19.8399 O.2     1  UNL1       -0.2701
      2 C         -61.6856  -41.9311  -20.6579 C.2     1  UNL1        0.2483
      3 N         -62.8890  -41.2854  -20.2012 N.am    1  UNL1       -0.2945
      4 H         -63.5920  -40.9805  -20.9111 H       1  UNL1        0.1501
      5 C         -61.4893  -42.2369  -22.0909 C.ar    1  UNL1        0.0808
      6 C         -62.5620  -42.0800  -22.9839 C.ar    1  UNL1        0.0080
      7 C         -62.4044  -42.3736  -24.3405 C.ar    1  UNL1        0.0148
      8 C         -61.1681  -42.8185  -24.8309 C.ar    1  UNL1        0.0502
      9 C         -60.0903  -42.9620  -23.9447 C.ar    1  UNL1        0.0443
     10 C         -60.2441  -42.6697  -22.5856 C.ar    1  UNL1        0.1457
     11 F         -59.1623  -42.7612  -21.7713 F       1  UNL1       -0.2040
     12 N         -61.0102  -43.1304  -26.2261 N.pl3   1  UNL1       -0.3036
     13 C         -60.2722  -42.2226  -27.1074 C.3     1  UNL1        0.1123
     14 C         -61.0628  -42.0071  -28.3954 C.3     1  UNL1        0.1126
     15 N         -61.3942  -43.2904  -29.0359 N.pl3   1  UNL1       -0.2968
     16 C         -61.3134  -44.5520  -28.2637 C.3     1  UNL1        0.1924
     17 C         -61.6625  -44.3264  -26.7760 C.3     1  UNL1        0.1221
     18 C         -61.5457  -43.2999  -30.4722 C.ar    1  UNL1        0.0492
     19 C         -62.7463  -42.8824  -31.0709 C.ar    1  UNL1        0.0154
     20 C         -62.8858  -42.9003  -32.4608 C.ar    1  UNL1        0.0135
     21 C         -61.8331  -43.3395  -33.2705 C.ar    1  UNL1        0.0683
     22 CL        -62.0469  -43.3476  -35.0158 Cl      1  UNL1       -0.0814
     23 C         -60.6316  -43.7666  -32.6810 C.ar    1  UNL1        0.0694
     24 CL        -59.2842  -44.3275  -33.6618 Cl      1  UNL1       -0.0813
     25 C         -60.4940  -43.7477  -31.2881 C.ar    1  UNL1        0.0268
     26 C         -62.2293  -45.6095  -28.8243 C.2     1  UNL1        0.3337
     27 O         -63.4461  -45.3526  -29.0326 O.2     1  UNL1       -0.2484
     28 O         -61.7340  -46.8815  -29.0927 O.3     1  UNL1       -0.4790
     29 H         -62.3365  -47.6055  -29.4653 H       1  UNL1        0.2951
     30 C         -63.1420  -40.8913  -18.8062 C.3     1  UNL1        0.1535
     31 C         -63.0926  -39.3912  -18.6312 C.2     1  UNL1        0.2443
     32 O         -62.8947  -38.8914  -17.4897 O.2     1  UNL1       -0.2730
     33 N         -63.3607  -38.5352  -19.7533 N.am    1  UNL1       -0.2825
     34 H         -63.8765  -38.9438  -20.5654 H       1  UNL1        0.1549
     35 C         -63.0518  -37.1312  -19.7856 C.ar    1  UNL1        0.0535
     36 C         -62.2059  -36.6343  -20.7866 C.ar    1  UNL1        0.0353
     37 C         -61.8842  -35.2751  -20.8086 C.ar    1  UNL1        0.1002
     38 N         -62.3763  -34.4423  -19.8539 N.ar    1  UNL1       -0.2422
     39 C         -63.1832  -34.8977  -18.8593 C.ar    1  UNL1        0.1002
     40 C         -63.5306  -36.2498  -18.8011 C.ar    1  UNL1        0.0353
     41 C         -64.4731  -41.4740  -18.2872 C.3     1  UNL1        0.0569
     42 C         -65.2869  -42.0622  -19.4037 C.ar    1  UNL1       -0.0017
     43 C         -65.6507  -43.3978  -19.5511 C.ar    1  UNL1        0.0681
     44 N         -66.4546  -43.5516  -20.6279 N.ar    1  UNL1       -0.3523
     45 C         -66.6096  -42.3242  -21.1543 C.ar    1  UNL1        0.0563
     46 C         -67.3720  -41.9720  -22.2671 C.ar    1  UNL1        0.0170
     47 C         -67.4108  -40.6144  -22.6346 C.ar    1  UNL1        0.0015
     48 C         -66.6977  -39.6499  -21.8880 C.ar    1  UNL1        0.0001
     49 C         -65.9383  -40.0343  -20.7679 C.ar    1  UNL1        0.0012
     50 C         -65.9155  -41.3879  -20.4315 C.ar    1  UNL1        0.0131
     51 H         -66.8798  -44.4426  -20.9681 H       1  UNL1        0.1660
@<TRIPOS>BOND
     1     1     2    2
     2     2     3   am
     3     3    30    1
     4    30    41    1
     5    41    42    1
     6    42    43   ar
     7    43    44   ar
     8    44    45   ar
     9    45    46   ar
    10    46    47   ar
    11    47    48   ar
    12    48    49   ar
    13    49    50   ar
    14    30    31    1
    15    31    32    2
    16    31    33   am
    17    33    35    1
    18    35    36   ar
    19    36    37   ar
    20    37    38   ar
    21    38    39   ar
    22    39    40   ar
    23     2     5    1
    24     5     6   ar
    25     6     7   ar
    26     7     8   ar
    27     8    12    1
    28    12    13    1
    29    13    14    1
    30    14    15    1
    31    15    18    1
    32    18    19   ar
    33    19    20   ar
    34    20    21   ar
    35    21    22    1
    36    21    23   ar
    37    23    24    1
    38    23    25   ar
    39    15    16    1
    40    16    26    1
    41    26    27    2
    42    26    28    1
    43    16    17    1
    44     8     9   ar
    45     9    10   ar
    46    10    11    1
    47    50    42   ar
    48    40    35   ar
    49    10     5   ar
    50    50    45   ar
    51    17    12    1
    52    25    18   ar
    53     3     4    1
    54    44    51    1
    55    33    34    1
    56    28    29    1
@<TRIPOS>MOLECULE
*****
 51 56 0 0 0
SMALL
GASTEIGER

@<TRIPOS>ATOM
      1 O         -61.4944  -41.8792  -19.8445 O.2     1  UNL1       -0.2701
      2 C         -62.1996  -41.3508  -20.7466 C.2     1  UNL1        0.2483
      3 N         -63.1427  -40.3146  -20.4140 N.am    1  UNL1       -0.2945
      4 H         -63.6474  -39.8312  -21.1905 H       1  UNL1        0.1501
      5 C         -62.0153  -41.7834  -22.1481 C.ar    1  UNL1        0.0808
      6 C         -60.7726  -42.2961  -22.5550 C.ar    1  UNL1        0.0080
      7 C         -60.5705  -42.7006  -23.8767 C.ar    1  UNL1        0.0148
      8 C         -61.6109  -42.6106  -24.8129 C.ar    1  UNL1        0.0502
      9 C         -62.8579  -42.1133  -24.4067 C.ar    1  UNL1        0.0443
     10 C         -63.0641  -41.7066  -23.0844 C.ar    1  UNL1        0.1457
     11 F         -64.3016  -41.2895  -22.7148 F       1  UNL1       -0.2040
     12 N         -61.3981  -43.0178  -26.1760 N.pl3   1  UNL1       -0.3036
     13 C         -60.4085  -42.3285  -27.0072 C.3     1  UNL1        0.1123
     14 C         -61.0165  -42.0177  -28.3726 C.3     1  UNL1        0.1126
     15 N         -61.5535  -43.2343  -29.0039 N.pl3   1  UNL1       -0.2968
     16 C         -61.8114  -44.4450  -28.1901 C.3     1  UNL1        0.1924
     17 C         -62.2369  -44.0778  -26.7513 C.3     1  UNL1        0.1221
     18 C         -61.5739  -43.2837  -30.4472 C.ar    1  UNL1        0.0492
     19 C         -62.6873  -42.8177  -31.1663 C.ar    1  UNL1        0.0154
     20 C         -62.7007  -42.8747  -32.5621 C.ar    1  UNL1        0.0135
     21 C         -61.6075  -43.4015  -33.2578 C.ar    1  UNL1        0.0683
     22 CL        -61.6617  -43.4564  -35.0144 Cl      1  UNL1       -0.0814
     23 C         -60.4928  -43.8774  -32.5474 C.ar    1  UNL1        0.0694
     24 CL        -59.0985  -44.5487  -33.3825 Cl      1  UNL1       -0.0813
     25 C         -60.4816  -43.8193  -31.1488 C.ar    1  UNL1        0.0268
     26 C         -62.8765  -45.3154  -28.8061 C.2     1  UNL1        0.3337
     27 O         -64.0382  -44.8628  -28.9948 O.2     1  UNL1       -0.2484
     28 O         -62.5816  -46.6313  -29.1482 O.3     1  UNL1       -0.4790
     29 H         -63.2866  -47.2315  -29.5589 H       1  UNL1        0.2951
     30 C         -63.3475  -39.7820  -19.0577 C.3     1  UNL1        0.1535
     31 C         -63.6322  -38.2982  -19.0766 C.2     1  UNL1        0.2443
     32 O         -62.8539  -37.5099  -19.6806 O.2     1  UNL1       -0.2730
     33 N         -64.7432  -37.7777  -18.3293 N.am    1  UNL1       -0.2825
     34 H         -65.1322  -38.3686  -17.5598 H       1  UNL1        0.1549
     35 C         -65.2861  -36.4584  -18.5091 C.ar    1  UNL1        0.0535
     36 C         -66.3214  -36.2589  -19.4325 C.ar    1  UNL1        0.0353
     37 C         -66.8364  -34.9751  -19.6277 C.ar    1  UNL1        0.1002
     38 N         -66.3240  -33.9225  -18.9371 N.ar    1  UNL1       -0.2422
     39 C         -65.3070  -34.0811  -18.0493 C.ar    1  UNL1        0.1002
     40 C         -64.7638  -35.3483  -17.8232 C.ar    1  UNL1        0.0353
     41 C         -64.4513  -40.5565  -18.3075 C.3     1  UNL1        0.0569
     42 C         -65.3159  -41.3359  -19.2560 C.ar    1  UNL1       -0.0017
     43 C         -66.2923  -40.8202  -20.1037 C.ar    1  UNL1        0.0681
     44 N         -66.8122  -41.8011  -20.8763 N.ar    1  UNL1       -0.3523
     45 C         -66.1655  -42.9281  -20.5311 C.ar    1  UNL1        0.0563
     46 C         -66.3419  -44.2022  -21.0689 C.ar    1  UNL1        0.0170
     47 C         -65.5375  -45.2435  -20.5704 C.ar    1  UNL1        0.0015
     48 C         -64.5834  -44.9900  -19.5597 C.ar    1  UNL1        0.0001
     49 C         -64.4257  -43.6934  -19.0373 C.ar    1  UNL1        0.0012
     50 C         -65.2409  -42.6832  -19.5482 C.ar    1  UNL1        0.0131
     51 H         -67.5540  -41.6965  -21.6037 H       1  UNL1        0.1660
@<TRIPOS>BOND
     1     1     2    2
     2     2     3   am
     3     3    30    1
     4    30    41    1
     5    41    42    1
     6    42    43   ar
     7    43    44   ar
     8    44    45   ar
     9    45    46   ar
    10    46    47   ar
    11    47    48   ar
    12    48    49   ar
    13    49    50   ar
    14    30    31    1
    15    31    32    2
    16    31    33   am
    17    33    35    1
    18    35    36   ar
    19    36    37   ar
    20    37    38   ar
    21    38    39   ar
    22    39    40   ar
    23     2     5    1
    24     5     6   ar
    25     6     7   ar
    26     7     8   ar
    27     8    12    1
    28    12    13    1
    29    13    14    1
    30    14    15    1
    31    15    18    1
    32    18    19   ar
    33    19    20   ar
    34    20    21   ar
    35    21    22    1
    36    21    23   ar
    37    23    24    1
    38    23    25   ar
    39    15    16    1
    40    16    26    1
    41    26    27    2
    42    26    28    1
    43    16    17    1
    44     8     9   ar
    45     9    10   ar
    46    10    11    1
    47    50    42   ar
    48    40    35   ar
    49    10     5   ar
    50    50    45   ar
    51    17    12    1
    52    25    18   ar
    53     3     4    1
    54    44    51    1
    55    33    34    1
    56    28    29    1
@<TRIPOS>MOLECULE
*****
 51 56 0 0 0
SMALL
GASTEIGER

@<TRIPOS>ATOM
      1 O         -61.4407  -42.0194  -20.2797 O.2     1  UNL1       -0.2701
      2 C         -62.1614  -41.4086  -21.1150 C.2     1  UNL1        0.2483
      3 N         -62.9894  -40.3098  -20.6898 N.am    1  UNL1       -0.2945
      4 H         -63.5055  -39.7639  -21.4156 H       1  UNL1        0.1501
      5 C         -62.1128  -41.8123  -22.5363 C.ar    1  UNL1        0.0808
      6 C         -63.2477  -41.6334  -23.3443 C.ar    1  UNL1        0.0080
      7 C         -63.2299  -42.0177  -24.6872 C.ar    1  UNL1        0.0148
      8 C         -62.0735  -42.5773  -25.2497 C.ar    1  UNL1        0.0502
      9 C         -60.9333  -42.7436  -24.4498 C.ar    1  UNL1        0.0443
     10 C         -60.9471  -42.3607  -23.1046 C.ar    1  UNL1        0.1457
     11 F         -59.8058  -42.4798  -22.3799 F       1  UNL1       -0.2040
     12 N         -62.0602  -42.9821  -26.6298 N.pl3   1  UNL1       -0.3036
     13 C         -61.3570  -44.2013  -27.0356 C.3     1  UNL1        0.1123
     14 C         -60.5124  -43.9147  -28.2746 C.3     1  UNL1        0.1126
     15 N         -61.3304  -43.3346  -29.3522 N.pl3   1  UNL1       -0.2968
     16 C         -62.6586  -42.7528  -29.0493 C.3     1  UNL1        0.1924
     17 C         -62.6901  -42.1213  -27.6400 C.3     1  UNL1        0.1221
     18 C         -60.9131  -43.5806  -30.7129 C.ar    1  UNL1        0.0492
     19 C         -59.6504  -44.1314  -30.9887 C.ar    1  UNL1        0.0154
     20 C         -59.2529  -44.3607  -32.3082 C.ar    1  UNL1        0.0135
     21 C         -60.1063  -44.0388  -33.3687 C.ar    1  UNL1        0.0683
     22 CL        -59.5703  -44.3420  -35.0157 Cl      1  UNL1       -0.0814
     23 C         -61.3677  -43.4802  -33.1035 C.ar    1  UNL1        0.0694
     24 CL        -62.4705  -43.0597  -34.4070 Cl      1  UNL1       -0.0813
     25 C         -61.7639  -43.2514  -31.7806 C.ar    1  UNL1        0.0268
     26 C         -63.0543  -41.7078  -30.0606 C.2     1  UNL1        0.3337
     27 O         -64.1342  -41.8191  -30.7020 O.2     1  UNL1       -0.2484
     28 O         -62.2130  -40.6265  -30.3027 O.3     1  UNL1       -0.4790
     29 H         -62.4611  -39.9174  -30.9821 H       1  UNL1        0.2951
     30 C         -63.0531  -39.8035  -19.3097 C.3     1  UNL1        0.1535
     31 C         -63.4127  -38.3365  -19.2682 C.2     1  UNL1        0.2443
     32 O         -62.6485  -37.4804  -19.7925 O.2     1  UNL1       -0.2730
     33 N         -64.5831  -37.9112  -18.5518 N.am    1  UNL1       -0.2825
     34 H         -64.9769  -38.5601  -17.8332 H       1  UNL1        0.1549
     35 C         -65.1840  -36.6124  -18.6919 C.ar    1  UNL1        0.0535
     36 C         -66.2649  -36.4439  -19.5681 C.ar    1  UNL1        0.0353
     37 C         -66.8373  -35.1794  -19.7253 C.ar    1  UNL1        0.1002
     38 N         -66.3373  -34.1150  -19.0438 N.ar    1  UNL1       -0.2422
     39 C         -65.2780  -34.2429  -18.2018 C.ar    1  UNL1        0.1002
     40 C         -64.6767  -35.4902  -18.0148 C.ar    1  UNL1        0.0353
     41 C         -64.0162  -40.6428  -18.4442 C.3     1  UNL1        0.0569
     42 C         -64.8520  -41.5620  -19.2875 C.ar    1  UNL1       -0.0017
     43 C         -65.0435  -42.9264  -19.0882 C.ar    1  UNL1        0.0681
     44 N         -65.9248  -43.4157  -19.9901 N.ar    1  UNL1       -0.3523
     45 C         -66.2986  -42.3707  -20.7490 C.ar    1  UNL1        0.0563
     46 C         -67.2117  -42.3752  -21.8026 C.ar    1  UNL1        0.0170
     47 C         -67.4725  -41.1544  -22.4517 C.ar    1  UNL1        0.0015
     48 C         -66.8251  -39.9696  -22.0357 C.ar    1  UNL1        0.0001
     49 C         -65.9099  -39.9948  -20.9676 C.ar    1  UNL1        0.0012
     50 C         -65.6684  -41.2208  -20.3473 C.ar    1  UNL1        0.0131
     51 H         -66.2570  -44.4026  -20.0671 H       1  UNL1        0.1660
@<TRIPOS>BOND
     1     1     2    2
     2     2     3   am
     3     3    30    1
     4    30    41    1
     5    41    42    1
     6    42    43   ar
     7    43    44   ar
     8    44    45   ar
     9    45    46   ar
    10    46    47   ar
    11    47    48   ar
    12    48    49   ar
    13    49    50   ar
    14    30    31    1
    15    31    32    2
    16    31    33   am
    17    33    35    1
    18    35    36   ar
    19    36    37   ar
    20    37    38   ar
    21    38    39   ar
    22    39    40   ar
    23     2     5    1
    24     5     6   ar
    25     6     7   ar
    26     7     8   ar
    27     8    12    1
    28    12    13    1
    29    13    14    1
    30    14    15    1
    31    15    18    1
    32    18    19   ar
    33    19    20   ar
    34    20    21   ar
    35    21    22    1
    36    21    23   ar
    37    23    24    1
    38    23    25   ar
    39    15    16    1
    40    16    26    1
    41    26    27    2
    42    26    28    1
    43    16    17    1
    44     8     9   ar
    45     9    10   ar
    46    10    11    1
    47    50    42   ar
    48    40    35   ar
    49    10     5   ar
    50    50    45   ar
    51    17    12    1
    52    25    18   ar
    53     3     4    1
    54    44    51    1
    55    33    34    1
    56    28    29    1
@<TRIPOS>MOLECULE
*****
 51 56 0 0 0
SMALL
GASTEIGER

@<TRIPOS>ATOM
      1 O         -63.5730  -53.1362  -22.9407 O.2     1  UNL1       -0.2701
      2 C         -64.2647  -52.3995  -23.6950 C.2     1  UNL1        0.2483
      3 N         -65.6011  -52.7910  -24.0618 N.am    1  UNL1       -0.2945
      4 H         -66.1842  -52.1210  -24.6117 H       1  UNL1        0.1501
      5 C         -63.6981  -51.1165  -24.1622 C.ar    1  UNL1        0.0808
      6 C         -64.4773  -50.2698  -24.9676 C.ar    1  UNL1        0.0080
      7 C         -63.9599  -49.0577  -25.4309 C.ar    1  UNL1        0.0148
      8 C         -62.6581  -48.6648  -25.0878 C.ar    1  UNL1        0.0502
      9 C         -61.8822  -49.5007  -24.2712 C.ar    1  UNL1        0.0443
     10 C         -62.3963  -50.7154  -23.8058 C.ar    1  UNL1        0.1457
     11 F         -61.6384  -51.4670  -22.9676 F       1  UNL1       -0.2040
     12 N         -62.1231  -47.4214  -25.5743 N.pl3   1  UNL1       -0.3036
     13 C         -62.4310  -46.1652  -24.8869 C.3     1  UNL1        0.1123
     14 C         -62.8258  -45.1057  -25.9128 C.3     1  UNL1        0.1126
     15 N         -61.7903  -44.9579  -26.9485 N.pl3   1  UNL1       -0.2968
     16 C         -60.7652  -46.0112  -27.1338 C.3     1  UNL1        0.1924
     17 C         -61.3307  -47.4120  -26.8113 C.3     1  UNL1        0.1221
     18 C         -61.6609  -43.6671  -27.5833 C.ar    1  UNL1        0.0492
     19 C         -60.5297  -42.8651  -27.3567 C.ar    1  UNL1        0.0154
     20 C         -60.4158  -41.6154  -27.9705 C.ar    1  UNL1        0.0135
     21 C         -61.4296  -41.1473  -28.8128 C.ar    1  UNL1        0.0683
     22 CL        -61.2499  -39.5691  -29.5670 Cl      1  UNL1       -0.0814
     23 C         -62.5683  -41.9383  -29.0393 C.ar    1  UNL1        0.0694
     24 CL        -63.8665  -41.3873  -30.0896 Cl      1  UNL1       -0.0813
     25 C         -62.6804  -43.1902  -28.4233 C.ar    1  UNL1        0.0268
     26 C         -60.2188  -46.0177  -28.5383 C.2     1  UNL1        0.3337
     27 O         -60.9452  -45.6624  -29.5058 O.2     1  UNL1       -0.2484
     28 O         -58.9131  -46.4385  -28.7703 O.3     1  UNL1       -0.4790
     29 H         -58.5313  -46.4536  -29.7084 H       1  UNL1        0.2951
     30 C         -66.2646  -54.0186  -23.5948 C.3     1  UNL1        0.1535
     31 C         -67.4316  -53.7122  -22.6852 C.2     1  UNL1        0.2443
     32 O         -68.2429  -52.7924  -22.9812 O.2     1  UNL1       -0.2730
     33 N         -67.5633  -54.4119  -21.4374 N.am    1  UNL1       -0.2825
     34 H         -66.7121  -54.8762  -21.0471 H       1  UNL1        0.1549
     35 C         -68.7647  -54.4280  -20.6475 C.ar    1  UNL1        0.0535
     36 C         -68.6702  -54.4588  -19.2494 C.ar    1  UNL1        0.0353
     37 C         -69.8341  -54.4980  -18.4780 C.ar    1  UNL1        0.1002
     38 N         -71.0517  -54.5229  -19.0815 N.ar    1  UNL1       -0.2422
     39 C         -71.1754  -54.5135  -20.4352 C.ar    1  UNL1        0.1002
     40 C         -70.0367  -54.4733  -21.2438 C.ar    1  UNL1        0.0353
     41 C         -66.6931  -54.9134  -24.7766 C.3     1  UNL1        0.0569
     42 C         -67.9242  -55.7068  -24.4458 C.ar    1  UNL1       -0.0017
     43 C         -67.9929  -56.8276  -23.6230 C.ar    1  UNL1        0.0681
     44 N         -69.2759  -57.2327  -23.4838 N.ar    1  UNL1       -0.3523
     45 C         -70.0174  -56.3717  -24.2024 C.ar    1  UNL1        0.0563
     46 C         -71.4039  -56.3683  -24.3490 C.ar    1  UNL1        0.0170
     47 C         -71.9793  -55.3545  -25.1368 C.ar    1  UNL1        0.0015
     48 C         -71.1658  -54.3759  -25.7504 C.ar    1  UNL1        0.0001
     49 C         -69.7692  -54.4029  -25.5830 C.ar    1  UNL1        0.0012
     50 C         -69.2279  -55.4230  -24.8005 C.ar    1  UNL1        0.0131
     51 H         -69.6181  -58.0412  -22.9185 H       1  UNL1        0.1660
@<TRIPOS>BOND
     1     1     2    2
     2     2     3   am
     3     3    30    1
     4    30    41    1
     5    41    42    1
     6    42    43   ar
     7    43    44   ar
     8    44    45   ar
     9    45    46   ar
    10    46    47   ar
    11    47    48   ar
    12    48    49   ar
    13    49    50   ar
    14    30    31    1
    15    31    32    2
    16    31    33   am
    17    33    35    1
    18    35    36   ar
    19    36    37   ar
    20    37    38   ar
    21    38    39   ar
    22    39    40   ar
    23     2     5    1
    24     5     6   ar
    25     6     7   ar
    26     7     8   ar
    27     8    12    1
    28    12    13    1
    29    13    14    1
    30    14    15    1
    31    15    18    1
    32    18    19   ar
    33    19    20   ar
    34    20    21   ar
    35    21    22    1
    36    21    23   ar
    37    23    24    1
    38    23    25   ar
    39    15    16    1
    40    16    26    1
    41    26    27    2
    42    26    28    1
    43    16    17    1
    44     8     9   ar
    45     9    10   ar
    46    10    11    1
    47    50    42   ar
    48    40    35   ar
    49    10     5   ar
    50    50    45   ar
    51    17    12    1
    52    25    18   ar
    53     3     4    1
    54    44    51    1
    55    33    34    1
    56    28    29    1
@<TRIPOS>MOLECULE
*****
 51 56 0 0 0
SMALL
GASTEIGER

@<TRIPOS>ATOM
      1 O         -60.3429  -46.6907  -23.6826 O.2     1  UNL1       -0.2701
      2 C         -61.2698  -46.0661  -24.2665 C.2     1  UNL1        0.2483
      3 N         -61.7456  -46.5114  -25.5506 N.am    1  UNL1       -0.2945
      4 H         -62.5738  -46.0320  -25.9696 H       1  UNL1        0.1501
      5 C         -61.8821  -44.8989  -23.5969 C.ar    1  UNL1        0.0808
      6 C         -62.3163  -45.0153  -22.2662 C.ar    1  UNL1        0.0080
      7 C         -62.9085  -43.9300  -21.6159 C.ar    1  UNL1        0.0148
      8 C         -63.0669  -42.7052  -22.2805 C.ar    1  UNL1        0.0502
      9 C         -62.6208  -42.5807  -23.6045 C.ar    1  UNL1        0.0443
     10 C         -62.0279  -43.6651  -24.2594 C.ar    1  UNL1        0.1457
     11 F         -61.5530  -43.4876  -25.5183 F       1  UNL1       -0.2040
     12 N         -63.6863  -41.5918  -21.6129 N.pl3   1  UNL1       -0.3036
     13 C         -64.2253  -40.4722  -22.3883 C.3     1  UNL1        0.1123
     14 C         -63.7743  -39.1545  -21.7629 C.3     1  UNL1        0.1126
     15 N         -64.1325  -39.0939  -20.3364 N.pl3   1  UNL1       -0.2968
     16 C         -64.4834  -40.3320  -19.6025 C.3     1  UNL1        0.1924
     17 C         -63.7029  -41.5498  -20.1446 C.3     1  UNL1        0.1221
     18 C         -64.3731  -37.7901  -19.7637 C.ar    1  UNL1        0.0492
     19 C         -65.6816  -37.2995  -19.6183 C.ar    1  UNL1        0.0154
     20 C         -65.9045  -36.0347  -19.0684 C.ar    1  UNL1        0.0135
     21 C         -64.8265  -35.2415  -18.6621 C.ar    1  UNL1        0.0683
     22 CL        -65.1475  -33.6552  -17.9747 Cl      1  UNL1       -0.0814
     23 C         -63.5140  -35.7198  -18.8107 C.ar    1  UNL1        0.0694
     24 CL        -62.1305  -34.7546  -18.3143 Cl      1  UNL1       -0.0813
     25 C         -63.2930  -36.9874  -19.3619 C.ar    1  UNL1        0.0268
     26 C         -64.2160  -40.2001  -18.1251 C.2     1  UNL1        0.3337
     27 O         -65.1467  -40.3715  -17.2919 O.2     1  UNL1       -0.2484
     28 O         -62.9407  -39.8663  -17.6804 O.3     1  UNL1       -0.4790
     29 H         -62.7446  -39.7690  -16.6915 H       1  UNL1        0.2951
     30 C         -61.2361  -47.6955  -26.2601 C.3     1  UNL1        0.1535
     31 C         -61.6971  -48.9789  -25.6092 C.2     1  UNL1        0.2443
     32 O         -62.5785  -49.6911  -26.1639 O.2     1  UNL1       -0.2730
     33 N         -61.1932  -49.3397  -24.3132 N.am    1  UNL1       -0.2825
     34 H         -60.7753  -48.5834  -23.7251 H       1  UNL1        0.1549
     35 C         -61.3182  -50.6519  -23.7386 C.ar    1  UNL1        0.0535
     36 C         -62.5774  -51.1049  -23.3219 C.ar    1  UNL1        0.0353
     37 C         -62.7004  -52.3697  -22.7418 C.ar    1  UNL1        0.1002
     38 N         -61.6011  -53.1499  -22.5676 N.ar    1  UNL1       -0.2422
     39 C         -60.3640  -52.7307  -22.9436 C.ar    1  UNL1        0.1002
     40 C         -60.1969  -51.4730  -23.5288 C.ar    1  UNL1        0.0353
     41 C         -61.6074  -47.6599  -27.7574 C.3     1  UNL1        0.0569
     42 C         -60.8941  -46.5494  -28.4733 C.ar    1  UNL1       -0.0017
     43 C         -59.5204  -46.3255  -28.4979 C.ar    1  UNL1        0.0681
     44 N         -59.2264  -45.2855  -29.3111 N.ar    1  UNL1       -0.3523
     45 C         -60.4006  -44.8585  -29.8076 C.ar    1  UNL1        0.0563
     46 C         -60.6076  -43.8170  -30.7110 C.ar    1  UNL1        0.0170
     47 C         -61.9284  -43.5515  -31.1169 C.ar    1  UNL1        0.0015
     48 C         -62.9998  -44.3263  -30.6193 C.ar    1  UNL1        0.0001
     49 C         -62.7606  -45.3729  -29.7102 C.ar    1  UNL1        0.0012
     50 C         -61.4414  -45.6087  -29.3228 C.ar    1  UNL1        0.0131
     51 H         -58.2768  -44.9051  -29.5207 H       1  UNL1        0.1660
@<TRIPOS>BOND
     1     1     2    2
     2     2     3   am
     3     3    30    1
     4    30    41    1
     5    41    42    1
     6    42    43   ar
     7    43    44   ar
     8    44    45   ar
     9    45    46   ar
    10    46    47   ar
    11    47    48   ar
    12    48    49   ar
    13    49    50   ar
    14    30    31    1
    15    31    32    2
    16    31    33   am
    17    33    35    1
    18    35    36   ar
    19    36    37   ar
    20    37    38   ar
    21    38    39   ar
    22    39    40   ar
    23     2     5    1
    24     5     6   ar
    25     6     7   ar
    26     7     8   ar
    27     8    12    1
    28    12    13    1
    29    13    14    1
    30    14    15    1
    31    15    18    1
    32    18    19   ar
    33    19    20   ar
    34    20    21   ar
    35    21    22    1
    36    21    23   ar
    37    23    24    1
    38    23    25   ar
    39    15    16    1
    40    16    26    1
    41    26    27    2
    42    26    28    1
    43    16    17    1
    44     8     9   ar
    45     9    10   ar
    46    10    11    1
    47    50    42   ar
    48    40    35   ar
    49    10     5   ar
    50    50    45   ar
    51    17    12    1
    52    25    18   ar
    53     3     4    1
    54    44    51    1
    55    33    34    1
    56    28    29    1
@<TRIPOS>MOLECULE
*****
 51 56 0 0 0
SMALL
GASTEIGER

@<TRIPOS>ATOM
      1 O         -60.3161  -46.6726  -23.7747 O.2     1  UNL1       -0.2701
      2 C         -61.2742  -46.0721  -24.3331 C.2     1  UNL1        0.2483
      3 N         -61.7860  -46.5418  -25.5945 N.am    1  UNL1       -0.2945
      4 H         -62.6370  -46.0827  -25.9898 H       1  UNL1        0.1501
      5 C         -61.8845  -44.9082  -23.6562 C.ar    1  UNL1        0.0808
      6 C         -62.2954  -45.0245  -22.3181 C.ar    1  UNL1        0.0080
      7 C         -62.8852  -43.9423  -21.6605 C.ar    1  UNL1        0.0148
      8 C         -63.0644  -42.7205  -22.3253 C.ar    1  UNL1        0.0502
      9 C         -62.6416  -42.5959  -23.6569 C.ar    1  UNL1        0.0443
     10 C         -62.0512  -43.6772  -24.3191 C.ar    1  UNL1        0.1457
     11 F         -61.5989  -43.4991  -25.5862 F       1  UNL1       -0.2040
     12 N         -63.6814  -41.6104  -21.6502 N.pl3   1  UNL1       -0.3036
     13 C         -64.2294  -40.4902  -22.4185 C.3     1  UNL1        0.1123
     14 C         -63.7769  -39.1730  -21.7934 C.3     1  UNL1        0.1126
     15 N         -64.1240  -39.1168  -20.3640 N.pl3   1  UNL1       -0.2968
     16 C         -64.4659  -40.3576  -19.6304 C.3     1  UNL1        0.1924
     17 C         -63.6867  -41.5720  -20.1816 C.3     1  UNL1        0.1221
     18 C         -64.3634  -37.8150  -19.7861 C.ar    1  UNL1        0.0492
     19 C         -65.6720  -37.3278  -19.6299 C.ar    1  UNL1        0.0154
     20 C         -65.8938  -36.0650  -19.0752 C.ar    1  UNL1        0.0135
     21 C         -64.8146  -35.2703  -18.6746 C.ar    1  UNL1        0.0683
     22 CL        -65.1342  -33.6865  -17.9808 Cl      1  UNL1       -0.0814
     23 C         -63.5022  -35.7452  -18.8341 C.ar    1  UNL1        0.0694
     24 CL        -62.1173  -34.7781  -18.3452 Cl      1  UNL1       -0.0813
     25 C         -63.2823  -37.0109  -19.3901 C.ar    1  UNL1        0.0268
     26 C         -64.1873  -40.2286  -18.1549 C.2     1  UNL1        0.3337
     27 O         -65.1147  -40.3878  -17.3155 O.2     1  UNL1       -0.2484
     28 O         -62.9049  -39.9111  -17.7186 O.3     1  UNL1       -0.4790
     29 H         -62.7011  -39.8160  -16.7309 H       1  UNL1        0.2951
     30 C         -61.2795  -47.7251  -26.3076 C.3     1  UNL1        0.1535
     31 C         -61.7231  -49.0091  -25.6460 C.2     1  UNL1        0.2443
     32 O         -62.5833  -49.7457  -26.2022 O.2     1  UNL1       -0.2730
     33 N         -61.2283  -49.3436  -24.3394 N.am    1  UNL1       -0.2825
     34 H         -60.8327  -48.5717  -23.7560 H       1  UNL1        0.1549
     35 C         -61.3344  -50.6506  -23.7496 C.ar    1  UNL1        0.0535
     36 C         -62.5869  -51.1166  -23.3270 C.ar    1  UNL1        0.0353
     37 C         -62.6917  -52.3762  -22.7323 C.ar    1  UNL1        0.1002
     38 N         -61.5815  -53.1387  -22.5497 N.ar    1  UNL1       -0.2422
     39 C         -60.3505  -52.7064  -22.9312 C.ar    1  UNL1        0.1002
     40 C         -60.2015  -51.4533  -23.5310 C.ar    1  UNL1        0.0353
     41 C         -61.6727  -47.6966  -27.7994 C.3     1  UNL1        0.0569
     42 C         -62.4461  -46.4553  -28.1394 C.ar    1  UNL1       -0.0017
     43 C         -63.8313  -46.3180  -28.1523 C.ar    1  UNL1        0.0681
     44 N         -64.1760  -45.0381  -28.4215 N.ar    1  UNL1       -0.3523
     45 C         -63.0212  -44.3652  -28.5677 C.ar    1  UNL1        0.0563
     46 C         -62.8631  -43.0060  -28.8349 C.ar    1  UNL1        0.0170
     47 C         -61.5526  -42.5024  -28.9279 C.ar    1  UNL1        0.0015
     48 C         -60.4424  -43.3579  -28.7502 C.ar    1  UNL1        0.0001
     49 C         -60.6324  -44.7253  -28.4792 C.ar    1  UNL1        0.0012
     50 C         -61.9432  -45.1958  -28.3979 C.ar    1  UNL1        0.0131
     51 H         -65.1440  -44.6519  -28.4854 H       1  UNL1        0.1660
@<TRIPOS>BOND
     1     1     2    2
     2     2     3   am
     3     3    30    1
     4    30    41    1
     5    41    42    1
     6    42    43   ar
     7    43    44   ar
     8    44    45   ar
     9    45    46   ar
    10    46    47   ar
    11    47    48   ar
    12    48    49   ar
    13    49    50   ar
    14    30    31    1
    15    31    32    2
    16    31    33   am
    17    33    35    1
    18    35    36   ar
    19    36    37   ar
    20    37    38   ar
    21    38    39   ar
    22    39    40   ar
    23     2     5    1
    24     5     6   ar
    25     6     7   ar
    26     7     8   ar
    27     8    12    1
    28    12    13    1
    29    13    14    1
    30    14    15    1
    31    15    18    1
    32    18    19   ar
    33    19    20   ar
    34    20    21   ar
    35    21    22    1
    36    21    23   ar
    37    23    24    1
    38    23    25   ar
    39    15    16    1
    40    16    26    1
    41    26    27    2
    42    26    28    1
    43    16    17    1
    44     8     9   ar
    45     9    10   ar
    46    10    11    1
    47    50    42   ar
    48    40    35   ar
    49    10     5   ar
    50    50    45   ar
    51    17    12    1
    52    25    18   ar
    53     3     4    1
    54    44    51    1
    55    33    34    1
    56    28    29    1
@<TRIPOS>MOLECULE
*****
 51 56 0 0 0
SMALL
GASTEIGER

@<TRIPOS>ATOM
      1 O         -62.0430  -45.2214  -28.5579 O.2     1  UNL1       -0.2701
      2 C         -62.7806  -44.2006  -28.4941 C.2     1  UNL1        0.2483
      3 N         -63.4346  -43.7051  -29.6775 N.am    1  UNL1       -0.2945
      4 H         -64.1108  -42.9148  -29.5803 H       1  UNL1        0.1501
      5 C         -62.9922  -43.5481  -27.1845 C.ar    1  UNL1        0.0808
      6 C         -63.5553  -42.2622  -27.1364 C.ar    1  UNL1        0.0080
      7 C         -63.7543  -41.6203  -25.9118 C.ar    1  UNL1        0.0148
      8 C         -63.4045  -42.2571  -24.7121 C.ar    1  UNL1        0.0502
      9 C         -62.8559  -43.5473  -24.7552 C.ar    1  UNL1        0.0443
     10 C         -62.6544  -44.1932  -25.9794 C.ar    1  UNL1        0.1457
     11 F         -62.1795  -45.4645  -25.9767 F       1  UNL1       -0.2040
     12 N         -63.6003  -41.5907  -23.4526 N.pl3   1  UNL1       -0.3036
     13 C         -64.8492  -40.8751  -23.1816 C.3     1  UNL1        0.1123
     14 C         -64.5336  -39.5071  -22.5819 C.3     1  UNL1        0.1126
     15 N         -63.6719  -39.6337  -21.3951 N.pl3   1  UNL1       -0.2968
     16 C         -62.9225  -40.8875  -21.1481 C.3     1  UNL1        0.1924
     17 C         -62.5069  -41.5667  -22.4718 C.3     1  UNL1        0.1221
     18 C         -63.7847  -38.6156  -20.3769 C.ar    1  UNL1        0.0492
     19 C         -64.6967  -38.7570  -19.3175 C.ar    1  UNL1        0.0154
     20 C         -64.8031  -37.7644  -18.3402 C.ar    1  UNL1        0.0135
     21 C         -64.0062  -36.6169  -18.4095 C.ar    1  UNL1        0.0683
     22 CL        -64.1690  -35.3899  -17.1607 Cl      1  UNL1       -0.0814
     23 C         -63.0970  -36.4626  -19.4693 C.ar    1  UNL1        0.0694
     24 CL        -62.0776  -35.0353  -19.5951 Cl      1  UNL1       -0.0813
     25 C         -62.9921  -37.4585  -20.4474 C.ar    1  UNL1        0.0268
     26 C         -61.6894  -40.6463  -20.3159 C.2     1  UNL1        0.3337
     27 O         -60.7706  -39.8953  -20.7421 O.2     1  UNL1       -0.2484
     28 O         -61.5553  -41.2727  -19.0810 O.3     1  UNL1       -0.4790
     29 H         -60.7312  -41.1255  -18.5108 H       1  UNL1        0.2951
     30 C         -63.3284  -44.3267  -31.0070 C.3     1  UNL1        0.1535
     31 C         -64.5317  -45.1851  -31.3207 C.2     1  UNL1        0.2443
     32 O         -65.5673  -44.6677  -31.8225 O.2     1  UNL1       -0.2730
     33 N         -64.5253  -46.5764  -30.9630 N.am    1  UNL1       -0.2825
     34 H         -63.8432  -46.8891  -30.2353 H       1  UNL1        0.1549
     35 C         -65.4628  -47.5415  -31.4703 C.ar    1  UNL1        0.0535
     36 C         -65.9306  -47.4225  -32.7862 C.ar    1  UNL1        0.0353
     37 C         -66.8590  -48.3440  -33.2763 C.ar    1  UNL1        0.1002
     38 N         -67.3183  -49.3412  -32.4750 N.ar    1  UNL1       -0.2422
     39 C         -66.8982  -49.4713  -31.1888 C.ar    1  UNL1        0.1002
     40 C         -65.9694  -48.5717  -30.6594 C.ar    1  UNL1        0.0353
     41 C         -63.0894  -43.2708  -32.1066 C.3     1  UNL1        0.0569
     42 C         -61.8015  -43.5211  -32.8368 C.ar    1  UNL1       -0.0017
     43 C         -61.5522  -43.2827  -34.1855 C.ar    1  UNL1        0.0681
     44 N         -60.2584  -43.5451  -34.4797 N.ar    1  UNL1       -0.3523
     45 C         -59.6873  -43.9365  -33.3271 C.ar    1  UNL1        0.0563
     46 C         -58.3554  -44.2945  -33.1228 C.ar    1  UNL1        0.0170
     47 C         -57.9638  -44.6543  -31.8202 C.ar    1  UNL1        0.0015
     48 C         -58.9004  -44.6448  -30.7626 C.ar    1  UNL1        0.0001
     49 C         -60.2376  -44.2767  -30.9980 C.ar    1  UNL1        0.0012
     50 C         -60.5967  -43.9300  -32.3006 C.ar    1  UNL1        0.0131
     51 H         -59.7970  -43.4465  -35.4112 H       1  UNL1        0.1660
@<TRIPOS>BOND
     1     1     2    2
     2     2     3   am
     3     3    30    1
     4    30    41    1
     5    41    42    1
     6    42    43   ar
     7    43    44   ar
     8    44    45   ar
     9    45    46   ar
    10    46    47   ar
    11    47    48   ar
    12    48    49   ar
    13    49    50   ar
    14    30    31    1
    15    31    32    2
    16    31    33   am
    17    33    35    1
    18    35    36   ar
    19    36    37   ar
    20    37    38   ar
    21    38    39   ar
    22    39    40   ar
    23     2     5    1
    24     5     6   ar
    25     6     7   ar
    26     7     8   ar
    27     8    12    1
    28    12    13    1
    29    13    14    1
    30    14    15    1
    31    15    18    1
    32    18    19   ar
    33    19    20   ar
    34    20    21   ar
    35    21    22    1
    36    21    23   ar
    37    23    24    1
    38    23    25   ar
    39    15    16    1
    40    16    26    1
    41    26    27    2
    42    26    28    1
    43    16    17    1
    44     8     9   ar
    45     9    10   ar
    46    10    11    1
    47    50    42   ar
    48    40    35   ar
    49    10     5   ar
    50    50    45   ar
    51    17    12    1
    52    25    18   ar
    53     3     4    1
    54    44    51    1
    55    33    34    1
    56    28    29    1
