@<TRIPOS>MOLECULE
*****
 40 44 0 0 0
SMALL
GASTEIGER

@<TRIPOS>ATOM
      1 C         -23.1058   -8.4859   -8.9139 C.2     1  UNL1        0.2506
      2 O         -24.0390   -9.3229   -8.7823 O.2     1  UNL1       -0.2699
      3 N         -23.2842   -7.3332   -9.7639 N.am    1  UNL1       -0.2680
      4 C         -22.4502   -6.1346   -9.6168 C.3     1  UNL1        0.1412
      5 C         -21.2628   -6.1718  -10.5792 C.3     1  UNL1        0.2268
      6 O         -21.6844   -6.2067  -11.9426 O.3     1  UNL1       -0.4739
      7 C         -22.1672   -7.3692  -12.5548 C.ar    1  UNL1        0.1360
      8 C         -21.4747   -7.8805  -13.6551 C.ar    1  UNL1        0.0348
      9 C         -21.8705   -9.0824  -14.2628 C.ar    1  UNL1        0.0103
     10 C         -22.9967   -9.7727  -13.7559 C.ar    1  UNL1       -0.0016
     11 C         -23.7277   -9.2222  -12.6931 C.ar    1  UNL1        0.0002
     12 C         -23.3232   -8.0238  -12.0884 C.ar    1  UNL1        0.0317
     13 C         -24.1260   -7.4426  -10.9571 C.3     1  UNL1        0.1236
     14 C         -23.4337  -11.0669  -14.3152 C.ar    1  UNL1        0.0013
     15 C         -24.6893  -11.1739  -14.9681 C.ar    1  UNL1        0.0016
     16 C         -25.1105  -12.4013  -15.5130 C.ar    1  UNL1        0.0206
     17 C         -24.2522  -13.4907  -15.3941 C.ar    1  UNL1        0.0985
     18 N         -24.4470  -14.7454  -15.8379 N.ar    1  UNL1       -0.2241
     19 C         -23.3061  -15.3804  -15.4594 C.ar    1  UNL1        0.1750
     20 N         -22.4294  -14.5767  -14.8103 N.ar    1  UNL1       -0.3349
     21 C         -23.0424  -13.3880  -14.7779 C.ar    1  UNL1        0.0757
     22 C         -22.5871  -12.1936  -14.2263 C.ar    1  UNL1        0.0185
     23 H         -21.4924  -14.8300  -14.4256 H       1  UNL1        0.1675
     24 C         -20.6779   -9.1439   -8.9394 C.ar    1  UNL1        0.0503
     25 C         -19.4740   -9.3361   -8.2327 C.ar    1  UNL1        0.0328
     26 C         -19.4163   -9.1393   -6.8473 C.ar    1  UNL1        0.1069
     27 C         -20.5693   -8.7647   -6.1507 C.ar    1  UNL1        0.0186
     28 C         -21.7683   -8.5668   -6.8347 C.ar    1  UNL1        0.0071
     29 C         -21.8298   -8.7400   -8.2238 C.ar    1  UNL1        0.0667
     30 S         -17.9048   -9.4070   -5.9850 S.O2    1  UNL1        0.0105
     31 C         -18.2597   -9.9105   -4.3171 C.3     1  UNL1        0.1816
     32 O         -17.1104  -10.4784   -6.6779 O.2     1  UNL1       -0.1686
     33 O         -17.0932   -8.1419   -5.9640 O.2     1  UNL1       -0.1686
     34 N         -20.7498   -9.3714  -10.3646 N.pl3   1  UNL1       -0.3325
     35 H         -21.3959   -8.7894  -10.9418 H       1  UNL1        0.1468
     36 C         -20.8278  -11.6646  -11.2274 C.3     1  UNL1        0.0229
     37 C         -19.9939  -10.3980  -11.0807 C.3     1  UNL1        0.0871
     38 C         -21.0879   -9.5958  -15.4532 C.3     1  UNL1        0.1688
     39 O         -21.0251   -8.6231  -16.4788 O.3     1  UNL1       -0.3463
     40 C         -22.3254   -8.2885  -16.9127 C.3     1  UNL1        0.1746
@<TRIPOS>BOND
     1    36    37    1
     2    37    34    1
     3    34    24    1
     4    24    25   ar
     5    25    26   ar
     6    26    30    1
     7    30    31    1
     8    30    32    2
     9    30    33    2
    10    26    27   ar
    11    27    28   ar
    12    28    29   ar
    13    29     1    1
    14     1     2    2
    15     1     3   am
    16     3     4    1
    17     4     5    1
    18     5     6    1
    19     6     7    1
    20     7     8   ar
    21     8     9   ar
    22     9    38    1
    23    38    39    1
    24    39    40    1
    25     9    10   ar
    26    10    14    1
    27    14    15   ar
    28    15    16   ar
    29    16    17   ar
    30    17    18   ar
    31    18    19   ar
    32    19    20   ar
    33    20    21   ar
    34    21    22   ar
    35    10    11   ar
    36    11    12   ar
    37    12    13    1
    38    29    24   ar
    39    13     3    1
    40    12     7   ar
    41    22    14   ar
    42    21    17   ar
    43    34    35    1
    44    20    23    1
@<TRIPOS>MOLECULE
*****
 40 44 0 0 0
SMALL
GASTEIGER

@<TRIPOS>ATOM
      1 C         -20.9720   -8.1109  -12.4683 C.2     1  UNL1        0.2506
      2 O         -19.7329   -7.8879  -12.5295 O.2     1  UNL1       -0.2699
      3 N         -21.8442   -7.1664  -11.8124 N.am    1  UNL1       -0.2680
      4 C         -23.2857   -7.1345  -12.0863 C.3     1  UNL1        0.1412
      5 C         -24.0572   -7.9637  -11.0593 C.3     1  UNL1        0.2268
      6 O         -23.8858   -7.4617   -9.7339 O.3     1  UNL1       -0.4739
      7 C         -22.7246   -7.6859   -8.9852 C.ar    1  UNL1        0.1360
      8 C         -22.8322   -8.3860   -7.7811 C.ar    1  UNL1        0.0348
      9 C         -21.6924   -8.7033   -7.0256 C.ar    1  UNL1        0.0103
     10 C         -20.4209   -8.2921   -7.4907 C.ar    1  UNL1       -0.0016
     11 C         -20.3241   -7.5329   -8.6660 C.ar    1  UNL1        0.0002
     12 C         -21.4666   -7.2243   -9.4174 C.ar    1  UNL1        0.0317
     13 C         -21.3447   -6.3995  -10.6693 C.3     1  UNL1        0.1236
     14 C         -19.1793   -8.6382   -6.7717 C.ar    1  UNL1        0.0013
     15 C         -18.5716   -9.9058   -6.9678 C.ar    1  UNL1        0.0016
     16 C         -17.3823  -10.2413   -6.2940 C.ar    1  UNL1        0.0206
     17 C         -16.8289   -9.2879   -5.4441 C.ar    1  UNL1        0.0985
     18 N         -15.7077   -9.3916   -4.7083 N.ar    1  UNL1       -0.2241
     19 C         -15.6429   -8.1855   -4.0846 C.ar    1  UNL1        0.1750
     20 N         -16.6651   -7.3556   -4.4038 N.ar    1  UNL1       -0.3349
     21 C         -17.4040   -8.0671   -5.2627 C.ar    1  UNL1        0.0757
     22 C         -18.5791   -7.6945   -5.9097 C.ar    1  UNL1        0.0185
     23 H         -16.8341   -6.3851   -4.0577 H       1  UNL1        0.1675
     24 C         -22.0864   -9.4028  -14.3169 C.ar    1  UNL1        0.0503
     25 C         -22.5299  -10.6403  -14.8245 C.ar    1  UNL1        0.0328
     26 C         -22.3913  -11.8145  -14.0741 C.ar    1  UNL1        0.1069
     27 C         -21.8225  -11.7598  -12.7979 C.ar    1  UNL1        0.0186
     28 C         -21.3751  -10.5443  -12.2815 C.ar    1  UNL1        0.0071
     29 C         -21.4897   -9.3680  -13.0344 C.ar    1  UNL1        0.0667
     30 S         -22.9733  -13.3445  -14.7225 S.O2    1  UNL1        0.0105
     31 C         -24.6031  -13.6699  -14.0908 C.3     1  UNL1        0.1816
     32 O         -23.0181  -13.2732  -16.2232 O.2     1  UNL1       -0.1686
     33 O         -22.0486  -14.4591  -14.3198 O.2     1  UNL1       -0.1686
     34 N         -22.2511   -8.1841  -15.0756 N.pl3   1  UNL1       -0.3325
     35 H         -22.7390   -7.3724  -14.6369 H       1  UNL1        0.1468
     36 C         -20.3106   -8.2704  -16.5713 C.3     1  UNL1        0.0229
     37 C         -21.8053   -7.9986  -16.4559 C.3     1  UNL1        0.0871
     38 C         -21.8604   -9.4635   -5.7268 C.3     1  UNL1        0.1688
     39 O         -21.7158   -8.6044   -4.6119 O.3     1  UNL1       -0.3463
     40 C         -21.1689   -9.3115   -3.5201 C.3     1  UNL1        0.1746
@<TRIPOS>BOND
     1    36    37    1
     2    37    34    1
     3    34    24    1
     4    24    25   ar
     5    25    26   ar
     6    26    30    1
     7    30    31    1
     8    30    32    2
     9    30    33    2
    10    26    27   ar
    11    27    28   ar
    12    28    29   ar
    13    29     1    1
    14     1     2    2
    15     1     3   am
    16     3     4    1
    17     4     5    1
    18     5     6    1
    19     6     7    1
    20     7     8   ar
    21     8     9   ar
    22     9    38    1
    23    38    39    1
    24    39    40    1
    25     9    10   ar
    26    10    14    1
    27    14    15   ar
    28    15    16   ar
    29    16    17   ar
    30    17    18   ar
    31    18    19   ar
    32    19    20   ar
    33    20    21   ar
    34    21    22   ar
    35    10    11   ar
    36    11    12   ar
    37    12    13    1
    38    29    24   ar
    39    13     3    1
    40    12     7   ar
    41    22    14   ar
    42    21    17   ar
    43    34    35    1
    44    20    23    1
@<TRIPOS>MOLECULE
*****
 40 44 0 0 0
SMALL
GASTEIGER

@<TRIPOS>ATOM
      1 C         -20.9294   -7.9274  -12.5564 C.2     1  UNL1        0.2506
      2 O         -19.6911   -7.6951  -12.5918 O.2     1  UNL1       -0.2699
      3 N         -21.8191   -7.0023  -11.8962 N.am    1  UNL1       -0.2680
      4 C         -23.2559   -6.9742  -12.1939 C.3     1  UNL1        0.1412
      5 C         -24.0389   -7.8294  -11.1973 C.3     1  UNL1        0.2268
      6 O         -23.8934   -7.3538   -9.8592 O.3     1  UNL1       -0.4739
      7 C         -22.7435   -7.5857   -9.0956 C.ar    1  UNL1        0.1360
      8 C         -22.8666   -8.3111   -7.9081 C.ar    1  UNL1        0.0348
      9 C         -21.7375   -8.6364   -7.1399 C.ar    1  UNL1        0.0103
     10 C         -20.4613   -8.2074   -7.5748 C.ar    1  UNL1       -0.0016
     11 C         -20.3498   -7.4236   -8.7325 C.ar    1  UNL1        0.0002
     12 C         -21.4816   -7.1071   -9.4968 C.ar    1  UNL1        0.0317
     13 C         -21.3443   -6.2559  -10.7292 C.3     1  UNL1        0.1236
     14 C         -19.2296   -8.5601   -6.8420 C.ar    1  UNL1        0.0013
     15 C         -18.6615   -9.8530   -6.9832 C.ar    1  UNL1        0.0016
     16 C         -17.4820  -10.1955   -6.2960 C.ar    1  UNL1        0.0206
     17 C         -16.8980   -9.2237   -5.4885 C.ar    1  UNL1        0.0985
     18 N         -15.7792   -9.3299   -4.7494 N.ar    1  UNL1       -0.2241
     19 C         -15.6763   -8.1005   -4.1785 C.ar    1  UNL1        0.1750
     20 N         -16.6731   -7.2541   -4.5330 N.ar    1  UNL1       -0.3349
     21 C         -17.4349   -7.9791   -5.3599 C.ar    1  UNL1        0.0757
     22 C         -18.5992   -7.5988   -6.0219 C.ar    1  UNL1        0.0185
     23 H         -16.8115   -6.2647   -4.2292 H       1  UNL1        0.1675
     24 C         -21.6640  -10.3258  -12.3664 C.ar    1  UNL1        0.0503
     25 C         -22.1783  -11.4814  -12.9876 C.ar    1  UNL1        0.0328
     26 C         -22.4457  -11.4981  -14.3622 C.ar    1  UNL1        0.1069
     27 C         -22.1841  -10.3620  -15.1342 C.ar    1  UNL1        0.0186
     28 C         -21.6785   -9.2087  -14.5352 C.ar    1  UNL1        0.0071
     29 C         -21.4288   -9.1760  -13.1568 C.ar    1  UNL1        0.0667
     30 S         -23.0676  -12.9617  -15.1178 S.O2    1  UNL1        0.0105
     31 C         -23.9246  -12.5328  -16.6154 C.3     1  UNL1        0.1816
     32 O         -21.9288  -13.8897  -15.4355 O.2     1  UNL1       -0.1686
     33 O         -24.0137  -13.6616  -14.1826 O.2     1  UNL1       -0.1686
     34 N         -21.3612  -10.3115  -10.9535 N.pl3   1  UNL1       -0.3325
     35 H         -21.8967   -9.6744  -10.3238 H       1  UNL1        0.1468
     36 C         -19.0055  -10.3419  -10.2757 C.3     1  UNL1        0.0229
     37 C         -20.3171  -11.1157  -10.3200 C.3     1  UNL1        0.0871
     38 C         -21.9223   -9.4242   -5.8601 C.3     1  UNL1        0.1688
     39 O         -21.7783   -8.5920   -4.7249 O.3     1  UNL1       -0.3463
     40 C         -21.1895   -9.3128   -3.6643 C.3     1  UNL1        0.1746
@<TRIPOS>BOND
     1    36    37    1
     2    37    34    1
     3    34    24    1
     4    24    25   ar
     5    25    26   ar
     6    26    30    1
     7    30    31    1
     8    30    32    2
     9    30    33    2
    10    26    27   ar
    11    27    28   ar
    12    28    29   ar
    13    29     1    1
    14     1     2    2
    15     1     3   am
    16     3     4    1
    17     4     5    1
    18     5     6    1
    19     6     7    1
    20     7     8   ar
    21     8     9   ar
    22     9    38    1
    23    38    39    1
    24    39    40    1
    25     9    10   ar
    26    10    14    1
    27    14    15   ar
    28    15    16   ar
    29    16    17   ar
    30    17    18   ar
    31    18    19   ar
    32    19    20   ar
    33    20    21   ar
    34    21    22   ar
    35    10    11   ar
    36    11    12   ar
    37    12    13    1
    38    29    24   ar
    39    13     3    1
    40    12     7   ar
    41    22    14   ar
    42    21    17   ar
    43    34    35    1
    44    20    23    1
@<TRIPOS>MOLECULE
*****
 40 44 0 0 0
SMALL
GASTEIGER

@<TRIPOS>ATOM
      1 C         -20.5372   -8.9359  -12.3663 C.2     1  UNL1        0.2506
      2 O         -20.1726   -8.0290  -13.1622 O.2     1  UNL1       -0.2699
      3 N         -21.2287  -10.1001  -12.8660 N.am    1  UNL1       -0.2680
      4 C         -21.2785  -11.3508  -12.0998 C.3     1  UNL1        0.1412
      5 C         -22.5578  -11.4324  -11.2665 C.3     1  UNL1        0.2268
      6 O         -23.7274  -11.4121  -12.0848 O.3     1  UNL1       -0.4739
      7 C         -24.2250  -10.2385  -12.6629 C.ar    1  UNL1        0.1360
      8 C         -25.5100   -9.8159  -12.3139 C.ar    1  UNL1        0.0348
      9 C         -26.0320   -8.6092  -12.8056 C.ar    1  UNL1        0.0103
     10 C         -25.2438   -7.8220  -13.6779 C.ar    1  UNL1       -0.0016
     11 C         -23.9805   -8.2821  -14.0773 C.ar    1  UNL1        0.0002
     12 C         -23.4642   -9.4860  -13.5780 C.ar    1  UNL1        0.0317
     13 C         -22.1123   -9.9692  -14.0263 C.3     1  UNL1        0.1236
     14 C         -25.7122   -6.5187  -14.1883 C.ar    1  UNL1        0.0013
     15 C         -26.1625   -5.5198  -13.2861 C.ar    1  UNL1        0.0016
     16 C         -26.6020   -4.2706  -13.7627 C.ar    1  UNL1        0.0206
     17 C         -26.5698   -4.0544  -15.1374 C.ar    1  UNL1        0.0985
     18 N         -26.9370   -2.9467  -15.8061 N.ar    1  UNL1       -0.2241
     19 C         -26.6960   -3.2817  -17.1013 C.ar    1  UNL1        0.1750
     20 N         -26.2013   -4.5339  -17.2533 N.ar    1  UNL1       -0.3349
     21 C         -26.1280   -5.0070  -16.0041 C.ar    1  UNL1        0.0757
     22 C         -25.6841   -6.2550  -15.5753 C.ar    1  UNL1        0.0185
     23 H         -25.9387   -5.0152  -18.1419 H       1  UNL1        0.1675
     24 C         -20.9937   -7.7865  -10.1757 C.ar    1  UNL1        0.0503
     25 C         -20.7379   -7.6809   -8.7940 C.ar    1  UNL1        0.0328
     26 C         -19.7946   -8.5097   -8.1738 C.ar    1  UNL1        0.1069
     27 C         -19.0833   -9.4425   -8.9347 C.ar    1  UNL1        0.0186
     28 C         -19.3263   -9.5628  -10.3025 C.ar    1  UNL1        0.0071
     29 C         -20.2840   -8.7529  -10.9271 C.ar    1  UNL1        0.0667
     30 S         -19.4782   -8.3428   -6.4499 S.O2    1  UNL1        0.0105
     31 C         -18.2860   -9.5631   -5.9492 C.3     1  UNL1        0.1816
     32 O         -18.9434   -6.9674   -6.1650 O.2     1  UNL1       -0.1686
     33 O         -20.7498   -8.5368   -5.6721 O.2     1  UNL1       -0.1686
     34 N         -21.9464   -6.9159  -10.8258 N.pl3   1  UNL1       -0.3325
     35 H         -22.8411   -7.3164  -11.1841 H       1  UNL1        0.1468
     36 C         -23.0560   -4.8188  -11.4429 C.3     1  UNL1        0.0229
     37 C         -21.7421   -5.4865  -11.0566 C.3     1  UNL1        0.0871
     38 C         -27.4303   -8.1941  -12.3987 C.3     1  UNL1        0.1688
     39 O         -27.6552   -8.4428  -11.0242 O.3     1  UNL1       -0.3463
     40 C         -27.2151   -7.3464  -10.2526 C.3     1  UNL1        0.1746
@<TRIPOS>BOND
     1    36    37    1
     2    37    34    1
     3    34    24    1
     4    24    25   ar
     5    25    26   ar
     6    26    30    1
     7    30    31    1
     8    30    32    2
     9    30    33    2
    10    26    27   ar
    11    27    28   ar
    12    28    29   ar
    13    29     1    1
    14     1     2    2
    15     1     3   am
    16     3     4    1
    17     4     5    1
    18     5     6    1
    19     6     7    1
    20     7     8   ar
    21     8     9   ar
    22     9    38    1
    23    38    39    1
    24    39    40    1
    25     9    10   ar
    26    10    14    1
    27    14    15   ar
    28    15    16   ar
    29    16    17   ar
    30    17    18   ar
    31    18    19   ar
    32    19    20   ar
    33    20    21   ar
    34    21    22   ar
    35    10    11   ar
    36    11    12   ar
    37    12    13    1
    38    29    24   ar
    39    13     3    1
    40    12     7   ar
    41    22    14   ar
    42    21    17   ar
    43    34    35    1
    44    20    23    1
@<TRIPOS>MOLECULE
*****
 40 44 0 0 0
SMALL
GASTEIGER

@<TRIPOS>ATOM
      1 C         -20.1274   -7.3927   -9.5231 C.2     1  UNL1        0.2506
      2 O         -20.5012   -6.2269   -9.8229 O.2     1  UNL1       -0.2699
      3 N         -19.5916   -8.2635  -10.5419 N.am    1  UNL1       -0.2680
      4 C         -18.7526   -9.4183  -10.2009 C.3     1  UNL1        0.1412
      5 C         -19.5895  -10.6941  -10.1034 C.3     1  UNL1        0.2268
      6 O         -20.2263  -11.0081  -11.3419 O.3     1  UNL1       -0.4739
      7 C         -21.3693  -10.3391  -11.7949 C.ar    1  UNL1        0.1360
      8 C         -22.5381  -11.0772  -11.9968 C.ar    1  UNL1        0.0348
      9 C         -23.7330  -10.4478  -12.3797 C.ar    1  UNL1        0.0103
     10 C         -23.7416   -9.0465  -12.5753 C.ar    1  UNL1       -0.0016
     11 C         -22.5509   -8.3188  -12.4353 C.ar    1  UNL1        0.0002
     12 C         -21.3627   -8.9541  -12.0480 C.ar    1  UNL1        0.0317
     13 C         -20.0928   -8.1594  -11.9138 C.3     1  UNL1        0.1236
     14 C         -24.9755   -8.3168  -12.9268 C.ar    1  UNL1        0.0013
     15 C         -26.2167   -8.6969  -12.3528 C.ar    1  UNL1        0.0016
     16 C         -27.3970   -8.0011  -12.6745 C.ar    1  UNL1        0.0206
     17 C         -27.2974   -6.9330  -13.5614 C.ar    1  UNL1        0.0985
     18 N         -28.2852   -6.1344  -14.0038 N.ar    1  UNL1       -0.2241
     19 C         -27.6321   -5.2753  -14.8303 C.ar    1  UNL1        0.1750
     20 N         -26.3002   -5.5101  -14.9119 N.ar    1  UNL1       -0.3349
     21 C         -26.1062   -6.5594  -14.1050 C.ar    1  UNL1        0.0757
     22 C         -24.9155   -7.2194  -13.8134 C.ar    1  UNL1        0.0185
     23 H         -25.5915   -4.9900  -15.4754 H       1  UNL1        0.1675
     24 C         -21.4788   -8.5053   -7.7165 C.ar    1  UNL1        0.0503
     25 C         -21.5701   -8.9559   -6.3845 C.ar    1  UNL1        0.0328
     26 C         -20.5154   -8.7548   -5.4853 C.ar    1  UNL1        0.1069
     27 C         -19.3631   -8.0836   -5.9059 C.ar    1  UNL1        0.0186
     28 C         -19.2545   -7.6341   -7.2213 C.ar    1  UNL1        0.0071
     29 C         -20.2958   -7.8505   -8.1336 C.ar    1  UNL1        0.0667
     30 S         -20.6635   -9.3085   -3.8206 S.O2    1  UNL1        0.0105
     31 C         -20.4630   -7.9263   -2.7203 C.3     1  UNL1        0.1816
     32 O         -22.0171   -9.9278   -3.6124 O.2     1  UNL1       -0.1686
     33 O         -19.6105  -10.3399   -3.5256 O.2     1  UNL1       -0.1686
     34 N         -22.5744   -8.6863   -8.6411 N.pl3   1  UNL1       -0.3325
     35 H         -22.7874   -7.9342   -9.3327 H       1  UNL1        0.1468
     36 C         -24.8709   -9.4432   -9.0449 C.3     1  UNL1        0.0229
     37 C         -23.4530   -9.8548   -8.6690 C.3     1  UNL1        0.0871
     38 C         -24.9736  -11.2910  -12.5866 C.3     1  UNL1        0.1688
     39 O         -24.7951  -12.2063  -13.6506 O.3     1  UNL1       -0.3463
     40 C         -25.3739  -11.6976  -14.8327 C.3     1  UNL1        0.1746
@<TRIPOS>BOND
     1    36    37    1
     2    37    34    1
     3    34    24    1
     4    24    25   ar
     5    25    26   ar
     6    26    30    1
     7    30    31    1
     8    30    32    2
     9    30    33    2
    10    26    27   ar
    11    27    28   ar
    12    28    29   ar
    13    29     1    1
    14     1     2    2
    15     1     3   am
    16     3     4    1
    17     4     5    1
    18     5     6    1
    19     6     7    1
    20     7     8   ar
    21     8     9   ar
    22     9    38    1
    23    38    39    1
    24    39    40    1
    25     9    10   ar
    26    10    14    1
    27    14    15   ar
    28    15    16   ar
    29    16    17   ar
    30    17    18   ar
    31    18    19   ar
    32    19    20   ar
    33    20    21   ar
    34    21    22   ar
    35    10    11   ar
    36    11    12   ar
    37    12    13    1
    38    29    24   ar
    39    13     3    1
    40    12     7   ar
    41    22    14   ar
    42    21    17   ar
    43    34    35    1
    44    20    23    1
@<TRIPOS>MOLECULE
*****
 40 44 0 0 0
SMALL
GASTEIGER

@<TRIPOS>ATOM
      1 C         -24.5932   -9.3316   -9.9172 C.2     1  UNL1        0.2506
      2 O         -25.1934  -10.4240   -9.7293 O.2     1  UNL1       -0.2699
      3 N         -25.1330   -8.3603  -10.8384 N.am    1  UNL1       -0.2680
      4 C         -24.7527   -6.9445  -10.7708 C.3     1  UNL1        0.1412
      5 C         -23.6045   -6.6389  -11.7330 C.3     1  UNL1        0.2268
      6 O         -23.9651   -6.8969  -13.0900 O.3     1  UNL1       -0.4739
      7 C         -24.0183   -8.1891  -13.6252 C.ar    1  UNL1        0.1360
      8 C         -23.1745   -8.5040  -14.6931 C.ar    1  UNL1        0.0348
      9 C         -23.1325   -9.8038  -15.2216 C.ar    1  UNL1        0.0103
     10 C         -23.9705  -10.8003  -14.6678 C.ar    1  UNL1       -0.0016
     11 C         -24.8631  -10.4638  -13.6397 C.ar    1  UNL1        0.0002
     12 C         -24.8956   -9.1646  -13.1140 C.ar    1  UNL1        0.0317
     13 C         -25.8673   -8.8192  -12.0192 C.3     1  UNL1        0.1236
     14 C         -23.9372  -12.1976  -15.1421 C.ar    1  UNL1        0.0013
     15 C         -25.1478  -12.8909  -15.4034 C.ar    1  UNL1        0.0016
     16 C         -25.1261  -14.2203  -15.8650 C.ar    1  UNL1        0.0206
     17 C         -23.8840  -14.8174  -16.0601 C.ar    1  UNL1        0.0985
     18 N         -23.6284  -16.0651  -16.4929 N.ar    1  UNL1       -0.2241
     19 C         -22.2698  -16.1104  -16.4990 C.ar    1  UNL1        0.1750
     20 N         -21.6879  -14.9559  -16.0937 N.ar    1  UNL1       -0.3349
     21 C         -22.7211  -14.1509  -15.8207 C.ar    1  UNL1        0.0757
     22 C         -22.6973  -12.8358  -15.3644 C.ar    1  UNL1        0.0185
     23 H         -20.6682  -14.7462  -16.0141 H       1  UNL1        0.1675
     24 C         -22.0783   -9.3204   -9.8605 C.ar    1  UNL1        0.0503
     25 C         -20.8901   -9.0450   -9.1548 C.ar    1  UNL1        0.0328
     26 C         -20.9317   -8.5683   -7.8386 C.ar    1  UNL1        0.1069
     27 C         -22.1650   -8.3787   -7.2076 C.ar    1  UNL1        0.0186
     28 C         -23.3507   -8.6429   -7.8923 C.ar    1  UNL1        0.0071
     29 C         -23.3188   -9.0991   -9.2168 C.ar    1  UNL1        0.0667
     30 S         -19.4323   -8.2525   -6.9716 S.O2    1  UNL1        0.0105
     31 C         -18.4050   -9.7027   -7.0241 C.3     1  UNL1        0.1816
     32 O         -18.7115   -7.0993   -7.6117 O.2     1  UNL1       -0.1686
     33 O         -19.7295   -7.9011   -5.5405 O.2     1  UNL1       -0.1686
     34 N         -22.0410   -9.8377  -11.2093 N.pl3   1  UNL1       -0.3325
     35 H         -22.0156   -9.1699  -12.0109 H       1  UNL1        0.1468
     36 C         -20.6531  -11.8251  -11.5746 C.3     1  UNL1        0.0229
     37 C         -22.0671  -11.2583  -11.5547 C.3     1  UNL1        0.0871
     38 C         -22.2015  -10.0959  -16.3796 C.3     1  UNL1        0.1688
     39 O         -21.7380   -8.8987  -16.9743 O.3     1  UNL1       -0.3463
     40 C         -20.4589   -8.5712  -16.4765 C.3     1  UNL1        0.1746
@<TRIPOS>BOND
     1    36    37    1
     2    37    34    1
     3    34    24    1
     4    24    25   ar
     5    25    26   ar
     6    26    30    1
     7    30    31    1
     8    30    32    2
     9    30    33    2
    10    26    27   ar
    11    27    28   ar
    12    28    29   ar
    13    29     1    1
    14     1     2    2
    15     1     3   am
    16     3     4    1
    17     4     5    1
    18     5     6    1
    19     6     7    1
    20     7     8   ar
    21     8     9   ar
    22     9    38    1
    23    38    39    1
    24    39    40    1
    25     9    10   ar
    26    10    14    1
    27    14    15   ar
    28    15    16   ar
    29    16    17   ar
    30    17    18   ar
    31    18    19   ar
    32    19    20   ar
    33    20    21   ar
    34    21    22   ar
    35    10    11   ar
    36    11    12   ar
    37    12    13    1
    38    29    24   ar
    39    13     3    1
    40    12     7   ar
    41    22    14   ar
    42    21    17   ar
    43    34    35    1
    44    20    23    1
@<TRIPOS>MOLECULE
*****
 40 44 0 0 0
SMALL
GASTEIGER

@<TRIPOS>ATOM
      1 C         -23.3843   -8.6563  -13.6748 C.2     1  UNL1        0.2506
      2 O         -23.8554   -7.7227  -12.9711 O.2     1  UNL1       -0.2699
      3 N         -22.2746   -8.4025  -14.5622 N.am    1  UNL1       -0.2680
      4 C         -21.4184   -9.4897  -15.0507 C.3     1  UNL1        0.1412
      5 C         -21.8900   -9.9867  -16.4175 C.3     1  UNL1        0.2268
      6 O         -21.8388   -8.9566  -17.4044 O.3     1  UNL1       -0.4739
      7 C         -22.7977   -7.9402  -17.4863 C.ar    1  UNL1        0.1360
      8 C         -23.5562   -7.8314  -18.6544 C.ar    1  UNL1        0.0348
      9 C         -24.5812   -6.8785  -18.7640 C.ar    1  UNL1        0.0103
     10 C         -24.8341   -6.0102  -17.6759 C.ar    1  UNL1       -0.0016
     11 C         -24.0272   -6.0792  -16.5309 C.ar    1  UNL1        0.0002
     12 C         -23.0087   -7.0369  -16.4271 C.ar    1  UNL1        0.0317
     13 C         -22.1462   -7.0888  -15.1960 C.3     1  UNL1        0.1236
     14 C         -25.9300   -5.0221  -17.7065 C.ar    1  UNL1        0.0013
     15 C         -26.6178   -4.6830  -16.5121 C.ar    1  UNL1        0.0016
     16 C         -27.6579   -3.7349  -16.5296 C.ar    1  UNL1        0.0206
     17 C         -27.9750   -3.1446  -17.7496 C.ar    1  UNL1        0.0985
     18 N         -28.9218   -2.2216  -17.9970 N.ar    1  UNL1       -0.2241
     19 C         -28.7906   -2.0046  -19.3325 C.ar    1  UNL1        0.1750
     20 N         -27.8137   -2.7464  -19.9079 N.ar    1  UNL1       -0.3349
     21 C         -27.3095   -3.4599  -18.8947 C.ar    1  UNL1        0.0757
     22 C         -26.2748   -4.3911  -18.9218 C.ar    1  UNL1        0.0185
     23 H         -27.5239   -2.7564  -20.9110 H       1  UNL1        0.1675
     24 C         -23.8053  -10.8390  -12.4971 C.ar    1  UNL1        0.0503
     25 C         -24.4704  -12.0809  -12.4626 C.ar    1  UNL1        0.0328
     26 C         -25.3235  -12.4669  -13.5040 C.ar    1  UNL1        0.1069
     27 C         -25.5065  -11.6201  -14.6015 C.ar    1  UNL1        0.0186
     28 C         -24.8590  -10.3861  -14.6504 C.ar    1  UNL1        0.0071
     29 C         -24.0209   -9.9823  -13.6025 C.ar    1  UNL1        0.0667
     30 S         -26.1255  -14.0332  -13.4468 S.O2    1  UNL1        0.0105
     31 C         -26.3612  -14.5126  -11.7509 C.3     1  UNL1        0.1816
     32 O         -27.4580  -13.9442  -14.1365 O.2     1  UNL1       -0.1686
     33 O         -25.2878  -15.0663  -14.1472 O.2     1  UNL1       -0.1686
     34 N         -22.9034  -10.4470  -11.4384 N.pl3   1  UNL1       -0.3325
     35 H         -23.2112   -9.7291  -10.7462 H       1  UNL1        0.1468
     36 C         -20.5702   -9.8222  -11.0195 C.3     1  UNL1        0.0229
     37 C         -21.5464  -10.9649  -11.2695 C.3     1  UNL1        0.0871
     38 C         -25.3755   -6.7993  -20.0508 C.3     1  UNL1        0.1688
     39 O         -25.6816   -8.0910  -20.5403 O.3     1  UNL1       -0.3463
     40 C         -25.0841   -8.2872  -21.8035 C.3     1  UNL1        0.1746
@<TRIPOS>BOND
     1    36    37    1
     2    37    34    1
     3    34    24    1
     4    24    25   ar
     5    25    26   ar
     6    26    30    1
     7    30    31    1
     8    30    32    2
     9    30    33    2
    10    26    27   ar
    11    27    28   ar
    12    28    29   ar
    13    29     1    1
    14     1     2    2
    15     1     3   am
    16     3     4    1
    17     4     5    1
    18     5     6    1
    19     6     7    1
    20     7     8   ar
    21     8     9   ar
    22     9    38    1
    23    38    39    1
    24    39    40    1
    25     9    10   ar
    26    10    14    1
    27    14    15   ar
    28    15    16   ar
    29    16    17   ar
    30    17    18   ar
    31    18    19   ar
    32    19    20   ar
    33    20    21   ar
    34    21    22   ar
    35    10    11   ar
    36    11    12   ar
    37    12    13    1
    38    29    24   ar
    39    13     3    1
    40    12     7   ar
    41    22    14   ar
    42    21    17   ar
    43    34    35    1
    44    20    23    1
@<TRIPOS>MOLECULE
*****
 40 44 0 0 0
SMALL
GASTEIGER

@<TRIPOS>ATOM
      1 C         -24.3998   -9.2692  -12.9516 C.2     1  UNL1        0.2506
      2 O         -25.3407   -8.9888  -12.1611 O.2     1  UNL1       -0.2699
      3 N         -23.3483   -8.3100  -13.1917 N.am    1  UNL1       -0.2680
      4 C         -22.0422   -8.7195  -13.7211 C.3     1  UNL1        0.1412
      5 C         -21.9943   -8.5652  -15.2415 C.3     1  UNL1        0.2268
      6 O         -22.1875   -7.2094  -15.6446 O.3     1  UNL1       -0.4739
      7 C         -23.4465   -6.5980  -15.6610 C.ar    1  UNL1        0.1360
      8 C         -23.9431   -6.1265  -16.8787 C.ar    1  UNL1        0.0348
      9 C         -25.2293   -5.5711  -16.9678 C.ar    1  UNL1        0.0103
     10 C         -26.0224   -5.4786  -15.7998 C.ar    1  UNL1       -0.0016
     11 C         -25.4949   -5.8928  -14.5681 C.ar    1  UNL1        0.0002
     12 C         -24.2114   -6.4509  -14.4881 C.ar    1  UNL1        0.0317
     13 C         -23.6579   -6.8792  -13.1568 C.3     1  UNL1        0.1236
     14 C         -27.4015   -4.9537  -15.8344 C.ar    1  UNL1        0.0013
     15 C         -28.3845   -5.4734  -14.9522 C.ar    1  UNL1        0.0016
     16 C         -29.6997   -4.9726  -14.9712 C.ar    1  UNL1        0.0206
     17 C         -29.9913   -3.9538  -15.8737 C.ar    1  UNL1        0.0985
     18 N         -31.1688   -3.3309  -16.0609 N.ar    1  UNL1       -0.2241
     19 C         -30.8844   -2.4362  -17.0440 C.ar    1  UNL1        0.1750
     20 N         -29.5966   -2.4830  -17.4623 N.ar    1  UNL1       -0.3349
     21 C         -29.0474   -3.4460  -16.7133 C.ar    1  UNL1        0.0757
     22 C         -27.7355   -3.9116  -16.7268 C.ar    1  UNL1        0.0185
     23 H         -29.1410   -1.9003  -18.1993 H       1  UNL1        0.1675
     24 C         -23.6447  -11.6552  -13.2055 C.ar    1  UNL1        0.0503
     25 C         -23.7418  -12.8837  -13.8891 C.ar    1  UNL1        0.0328
     26 C         -24.5925  -13.0251  -14.9925 C.ar    1  UNL1        0.1069
     27 C         -25.3430  -11.9316  -15.4352 C.ar    1  UNL1        0.0186
     28 C         -25.2618  -10.7096  -14.7684 C.ar    1  UNL1        0.0071
     29 C         -24.4299  -10.5653  -13.6501 C.ar    1  UNL1        0.0667
     30 S         -24.6792  -14.5646  -15.8424 S.O2    1  UNL1        0.0105
     31 C         -23.2895  -15.5722  -15.3790 C.3     1  UNL1        0.1816
     32 O         -25.9568  -15.2697  -15.4821 O.2     1  UNL1       -0.1686
     33 O         -24.6574  -14.3345  -17.3277 O.2     1  UNL1       -0.1686
     34 N         -22.7487  -11.4960  -12.0830 N.pl3   1  UNL1       -0.3325
     35 H         -23.0977  -11.0364  -11.2134 H       1  UNL1        0.1468
     36 C         -20.5643  -11.1116  -11.0390 C.3     1  UNL1        0.0229
     37 C         -21.3462  -11.9096  -12.0749 C.3     1  UNL1        0.0871
     38 C         -25.7229   -5.0736  -18.3101 C.3     1  UNL1        0.1688
     39 O         -24.8526   -5.4724  -19.3520 O.3     1  UNL1       -0.3463
     40 C         -25.3569   -6.6234  -19.9939 C.3     1  UNL1        0.1746
@<TRIPOS>BOND
     1    36    37    1
     2    37    34    1
     3    34    24    1
     4    24    25   ar
     5    25    26   ar
     6    26    30    1
     7    30    31    1
     8    30    32    2
     9    30    33    2
    10    26    27   ar
    11    27    28   ar
    12    28    29   ar
    13    29     1    1
    14     1     2    2
    15     1     3   am
    16     3     4    1
    17     4     5    1
    18     5     6    1
    19     6     7    1
    20     7     8   ar
    21     8     9   ar
    22     9    38    1
    23    38    39    1
    24    39    40    1
    25     9    10   ar
    26    10    14    1
    27    14    15   ar
    28    15    16   ar
    29    16    17   ar
    30    17    18   ar
    31    18    19   ar
    32    19    20   ar
    33    20    21   ar
    34    21    22   ar
    35    10    11   ar
    36    11    12   ar
    37    12    13    1
    38    29    24   ar
    39    13     3    1
    40    12     7   ar
    41    22    14   ar
    42    21    17   ar
    43    34    35    1
    44    20    23    1
@<TRIPOS>MOLECULE
*****
 40 44 0 0 0
SMALL
GASTEIGER

@<TRIPOS>ATOM
      1 C         -21.6796   -7.5893  -13.9285 C.2     1  UNL1        0.2506
      2 O         -20.4778   -7.2340  -13.7939 O.2     1  UNL1       -0.2699
      3 N         -22.7299   -6.8452  -13.2755 N.am    1  UNL1       -0.2680
      4 C         -24.1225   -6.9213  -13.7324 C.3     1  UNL1        0.1412
      5 C         -24.9042   -7.9664  -12.9360 C.3     1  UNL1        0.2268
      6 O         -24.9514   -7.6490  -11.5450 O.3     1  UNL1       -0.4739
      7 C         -23.8678   -7.8603  -10.6845 C.ar    1  UNL1        0.1360
      8 C         -24.0313   -8.7364   -9.6087 C.ar    1  UNL1        0.0348
      9 C         -22.9584   -9.0424   -8.7568 C.ar    1  UNL1        0.0103
     10 C         -21.6998   -8.4396   -8.9899 C.ar    1  UNL1       -0.0016
     11 C         -21.5573   -7.5107  -10.0310 C.ar    1  UNL1        0.0002
     12 C         -22.6323   -7.2141  -10.8805 C.ar    1  UNL1        0.0317
     13 C         -22.4640   -6.2069  -11.9847 C.3     1  UNL1        0.1236
     14 C         -20.5187   -8.7583   -8.1640 C.ar    1  UNL1        0.0013
     15 C         -19.5103   -9.6222   -8.6652 C.ar    1  UNL1        0.0016
     16 C         -18.3759   -9.9243   -7.8889 C.ar    1  UNL1        0.0206
     17 C         -18.2805   -9.3420   -6.6283 C.ar    1  UNL1        0.0985
     18 N         -17.2935   -9.4873   -5.7260 N.ar    1  UNL1       -0.2241
     19 C         -17.7084   -8.7039   -4.6955 C.ar    1  UNL1        0.1750
     20 N         -18.8944   -8.0905   -4.9254 N.ar    1  UNL1       -0.3349
     21 C         -19.2411   -8.5042   -6.1495 C.ar    1  UNL1        0.0757
     22 C         -20.3780   -8.1784   -6.8842 C.ar    1  UNL1        0.0185
     23 H         -19.4148   -7.4445   -4.2913 H       1  UNL1        0.1675
     24 C         -22.0738  -10.0674  -14.1063 C.ar    1  UNL1        0.0503
     25 C         -22.3937  -11.1823  -14.9065 C.ar    1  UNL1        0.0328
     26 C         -22.6009  -11.0405  -16.2843 C.ar    1  UNL1        0.1069
     27 C         -22.4723   -9.7820  -16.8797 C.ar    1  UNL1        0.0186
     28 C         -22.1597   -8.6674  -16.1024 C.ar    1  UNL1        0.0071
     29 C         -21.9725   -8.7963  -14.7197 C.ar    1  UNL1        0.0667
     30 S         -22.9783  -12.4531  -17.2651 S.O2    1  UNL1        0.0105
     31 C         -24.3523  -13.3209  -16.5438 C.3     1  UNL1        0.1816
     32 O         -23.3306  -12.0200  -18.6606 O.2     1  UNL1       -0.1686
     33 O         -21.7871  -13.3677  -17.3301 O.2     1  UNL1       -0.1686
     34 N         -21.8328  -10.2121  -12.6889 N.pl3   1  UNL1       -0.3325
     35 H         -21.5112   -9.3851  -12.1394 H       1  UNL1        0.1468
     36 C         -20.6370  -11.8876  -11.3576 C.3     1  UNL1        0.0229
     37 C         -21.9768  -11.4631  -11.9456 C.3     1  UNL1        0.0871
     38 C         -23.1855   -9.9977   -7.6040 C.3     1  UNL1        0.1688
     39 O         -23.7986  -11.1933   -8.0472 O.3     1  UNL1       -0.3463
     40 C         -25.1979  -11.0256   -8.1184 C.3     1  UNL1        0.1746
@<TRIPOS>BOND
     1    36    37    1
     2    37    34    1
     3    34    24    1
     4    24    25   ar
     5    25    26   ar
     6    26    30    1
     7    30    31    1
     8    30    32    2
     9    30    33    2
    10    26    27   ar
    11    27    28   ar
    12    28    29   ar
    13    29     1    1
    14     1     2    2
    15     1     3   am
    16     3     4    1
    17     4     5    1
    18     5     6    1
    19     6     7    1
    20     7     8   ar
    21     8     9   ar
    22     9    38    1
    23    38    39    1
    24    39    40    1
    25     9    10   ar
    26    10    14    1
    27    14    15   ar
    28    15    16   ar
    29    16    17   ar
    30    17    18   ar
    31    18    19   ar
    32    19    20   ar
    33    20    21   ar
    34    21    22   ar
    35    10    11   ar
    36    11    12   ar
    37    12    13    1
    38    29    24   ar
    39    13     3    1
    40    12     7   ar
    41    22    14   ar
    42    21    17   ar
    43    34    35    1
    44    20    23    1
