@<TRIPOS>MOLECULE
*****
 87 94 0 0 0
SMALL
GASTEIGER

@<TRIPOS>ATOM
      1 C         -63.9272  -42.5073  -28.7132 C.3     1  UNL1        0.0737
      2 C         -64.2810  -41.6600  -27.4729 C.3     1  UNL1        0.0323
      3 C         -63.2332  -41.8275  -26.4055 C.ar    1  UNL1       -0.0162
      4 C         -63.6071  -41.8316  -25.0609 C.ar    1  UNL1       -0.0038
      5 C         -62.6494  -41.9787  -24.0518 C.ar    1  UNL1        0.0085
      6 C         -63.0671  -42.0151  -22.7178 C.ar    1  UNL1        0.0370
      7 C         -62.1446  -42.1869  -21.6776 C.ar    1  UNL1        0.1402
      8 C         -60.7832  -42.3784  -21.9834 C.ar    1  UNL1        0.0459
      9 C         -59.7946  -42.6412  -20.8718 C.3     1  UNL1        0.0374
     10 C         -60.3584  -42.4017  -23.3365 C.ar    1  UNL1        0.1354
     11 O         -59.0488  -42.7781  -23.6517 O.3     1  UNL1       -0.5056
     12 C         -61.2770  -42.1042  -24.3794 C.ar    1  UNL1        0.0673
     13 C         -60.8888  -41.9717  -25.7463 C.ar    1  UNL1        0.1389
     14 O         -59.5466  -41.8864  -26.1284 O.3     1  UNL1       -0.5053
     15 C         -61.8759  -41.8807  -26.7578 C.ar    1  UNL1        0.0669
     16 C         -61.5218  -41.8097  -28.2021 C.2     1  UNL1        0.2026
     17 O         -60.3572  -41.4814  -28.5562 O.2     1  UNL1       -0.2887
     18 C         -62.5354  -42.1101  -29.2839 C.3     1  UNL1        0.1819
     19 H         -58.3606  -43.0640  -22.9679 H       1  UNL1        0.2922
     20 H         -58.8249  -41.4935  -25.5398 H       1  UNL1        0.2922
     21 C         -65.0224  -42.4165  -29.8147 C.3     1  UNL1        0.1777
     22 C         -65.2890  -40.1921  -30.4537 C.3     1  UNL1        0.1746
     23 O         -65.7823  -41.2303  -29.6341 O.3     1  UNL1       -0.3460
     24 C         -65.9388  -43.6320  -29.7841 C.2     1  UNL1        0.2064
     25 O         -66.3784  -44.0119  -28.7080 O.2     1  UNL1       -0.2909
     26 C         -66.3671  -44.3770  -31.0387 C.3     1  UNL1        0.1970
     27 O         -67.0805  -43.5552  -31.9313 O.3     1  UNL1       -0.3752
     28 H         -66.4468  -42.8897  -32.3026 H       1  UNL1        0.2110
     29 C         -65.1570  -45.0520  -31.7283 C.3     1  UNL1        0.1445
     30 C         -65.1496  -46.5651  -31.4857 C.3     1  UNL1        0.0348
     31 O         -65.1800  -44.7915  -33.1081 O.3     1  UNL1       -0.3815
     32 H         -64.2633  -44.9610  -33.4495 H       1  UNL1        0.2105
     33 O         -62.5502  -42.1870  -20.3296 O.3     1  UNL1       -0.4526
     34 C         -63.8624  -42.4842  -19.8463 C.3     1  UNL1        0.2901
     35 C         -64.0308  -41.8795  -18.4239 C.3     1  UNL1        0.1085
     36 C         -64.7373  -40.5195  -18.5057 C.3     1  UNL1        0.1531
     37 C         -66.1289  -40.7173  -19.1552 C.3     1  UNL1        0.1648
     38 O         -67.0805  -41.0428  -18.1734 O.3     1  UNL1       -0.3795
     39 C         -66.0900  -41.8537  -20.2155 C.3     1  UNL1        0.1480
     40 C         -67.1026  -41.5988  -21.3315 C.3     1  UNL1        0.0349
     41 O         -64.7953  -41.9544  -20.7821 O.3     1  UNL1       -0.3205
     42 H         -67.3085  -40.1995  -17.7013 H       1  UNL1        0.2105
     43 O         -63.9817  -39.6408  -19.3307 O.3     1  UNL1       -0.3301
     44 C         -64.3288  -38.2845  -19.1317 C.3     1  UNL1        0.2376
     45 C         -65.7140  -38.0459  -19.7635 C.3     1  UNL1        0.0931
     46 C         -65.9428  -36.5617  -20.1200 C.3     1  UNL1        0.1446
     47 O         -67.2897  -36.2164  -19.9270 O.3     1  UNL1       -0.3817
     48 C         -65.0492  -35.6593  -19.2542 C.3     1  UNL1        0.1644
     49 O         -65.2420  -34.3018  -19.5672 O.3     1  UNL1       -0.3795
     50 C         -63.5551  -36.0720  -19.4269 C.3     1  UNL1        0.1469
     51 C         -62.7160  -35.6976  -18.2017 C.3     1  UNL1        0.0348
     52 O         -63.3661  -37.4472  -19.7508 O.3     1  UNL1       -0.3304
     53 H         -67.8012  -36.6465  -20.6614 H       1  UNL1        0.2104
     54 H         -65.0526  -34.1835  -20.5348 H       1  UNL1        0.2105
     55 O         -62.0377  -43.2023  -30.0386 O.3     1  UNL1       -0.3249
     56 C         -60.7589  -42.9536  -30.5938 C.3     1  UNL1        0.2380
     57 C         -59.7197  -43.6386  -29.6738 C.3     1  UNL1        0.0935
     58 C         -59.5625  -45.1094  -30.0682 C.3     1  UNL1        0.1519
     59 C         -59.1048  -45.2039  -31.5457 C.3     1  UNL1        0.1648
     60 O         -57.7097  -45.3733  -31.5851 O.3     1  UNL1       -0.3795
     61 C         -59.4938  -43.9265  -32.3448 C.3     1  UNL1        0.1469
     62 C         -59.5497  -44.2125  -33.8457 C.3     1  UNL1        0.0348
     63 O         -60.7592  -43.4490  -31.9307 O.3     1  UNL1       -0.3304
     64 H         -57.4957  -45.8384  -32.4354 H       1  UNL1        0.2105
     65 O         -60.8208  -45.7584  -29.9177 O.3     1  UNL1       -0.3302
     66 C         -61.5069  -45.3142  -28.7590 C.3     1  UNL1        0.2376
     67 C         -60.5731  -45.3636  -27.5363 C.3     1  UNL1        0.0931
     68 C         -60.2928  -46.8078  -27.1036 C.3     1  UNL1        0.1450
     69 O         -59.5800  -46.7975  -25.8947 O.3     1  UNL1       -0.3817
     70 C         -61.6136  -47.5884  -26.9587 C.3     1  UNL1        0.1715
     71 C         -62.4067  -47.4316  -28.2723 C.3     1  UNL1        0.1473
     72 C         -63.7216  -48.2092  -28.2271 C.3     1  UNL1        0.0348
     73 O         -62.6936  -46.0658  -28.5332 O.3     1  UNL1       -0.3304
     74 H         -59.1896  -47.7034  -25.7848 H       1  UNL1        0.2104
     75 O         -62.3760  -47.0678  -25.8763 O.3     1  UNL1       -0.3279
     76 C         -62.1302  -47.7643  -24.6651 C.3     1  UNL1        0.2376
     77 C         -61.3501  -46.8538  -23.6901 C.3     1  UNL1        0.0907
     78 C         -60.4858  -47.6630  -22.6861 C.3     1  UNL1        0.1201
     79 C         -60.3955  -46.8872  -21.3560 C.3     1  UNL1        0.0321
     80 O         -59.1937  -47.8044  -23.2348 O.3     1  UNL1       -0.3841
     81 C         -61.1310  -49.0591  -22.4780 C.3     1  UNL1        0.1620
     82 O         -60.3694  -49.8435  -21.5920 O.3     1  UNL1       -0.3796
     83 C         -61.2388  -49.7904  -23.8482 C.3     1  UNL1        0.1468
     84 C         -62.3620  -50.8330  -23.8526 C.3     1  UNL1        0.0348
     85 O         -61.3659  -48.9163  -24.9676 O.3     1  UNL1       -0.3304
     86 H         -58.6268  -48.2847  -22.5762 H       1  UNL1        0.2103
     87 H         -60.7159  -49.6757  -20.6771 H       1  UNL1        0.2105
@<TRIPOS>BOND
     1    22    23    1
     2    23    21    1
     3    21    24    1
     4    24    25    2
     5    24    26    1
     6    26    27    1
     7    26    29    1
     8    29    30    1
     9    29    31    1
    10    21     1    1
    11     1     2    1
    12     2     3    1
    13     3     4   ar
    14     4     5   ar
    15     5     6   ar
    16     6     7   ar
    17     7    33    1
    18    33    34    1
    19    34    35    1
    20    35    36    1
    21    36    43    1
    22    43    44    1
    23    44    45    1
    24    45    46    1
    25    46    47    1
    26    46    48    1
    27    48    49    1
    28    48    50    1
    29    50    51    1
    30    50    52    1
    31    36    37    1
    32    37    38    1
    33    37    39    1
    34    39    40    1
    35    39    41    1
    36     7     8   ar
    37     8     9    1
    38     8    10   ar
    39    10    11    1
    40    10    12   ar
    41    12    13   ar
    42    13    14    1
    43    13    15   ar
    44    15    16    1
    45    16    17    2
    46    16    18    1
    47    18    55    1
    48    55    56    1
    49    56    57    1
    50    57    58    1
    51    58    65    1
    52    65    66    1
    53    66    67    1
    54    67    68    1
    55    68    69    1
    56    68    70    1
    57    70    75    1
    58    75    76    1
    59    76    77    1
    60    77    78    1
    61    78    79    1
    62    78    80    1
    63    78    81    1
    64    81    82    1
    65    81    83    1
    66    83    84    1
    67    83    85    1
    68    70    71    1
    69    71    72    1
    70    71    73    1
    71    58    59    1
    72    59    60    1
    73    59    61    1
    74    61    62    1
    75    61    63    1
    76    18     1    1
    77    63    56    1
    78    15     3   ar
    79    73    66    1
    80    12     5   ar
    81    85    76    1
    82    41    34    1
    83    52    44    1
    84    27    28    1
    85    31    32    1
    86    47    53    1
    87    49    54    1
    88    38    42    1
    89    11    19    1
    90    14    20    1
    91    69    74    1
    92    80    86    1
    93    82    87    1
    94    60    64    1
@<TRIPOS>MOLECULE
*****
 87 94 0 0 0
SMALL
GASTEIGER

@<TRIPOS>ATOM
      1 C         -62.5341  -45.9875  -24.9742 C.3     1  UNL1        0.0737
      2 C         -62.0579  -47.3421  -24.4088 C.3     1  UNL1        0.0323
      3 C         -62.6817  -48.4790  -25.1727 C.ar    1  UNL1       -0.0162
      4 C         -63.0375  -49.6512  -24.5040 C.ar    1  UNL1       -0.0038
      5 C         -63.6121  -50.7235  -25.1950 C.ar    1  UNL1        0.0085
      6 C         -63.9892  -51.8670  -24.4841 C.ar    1  UNL1        0.0370
      7 C         -64.5916  -52.9532  -25.1321 C.ar    1  UNL1        0.1402
      8 C         -64.8689  -52.8707  -26.5104 C.ar    1  UNL1        0.0459
      9 C         -65.5877  -54.0065  -27.2000 C.3     1  UNL1        0.0374
     10 C         -64.5434  -51.6916  -27.2284 C.ar    1  UNL1        0.1354
     11 O         -64.9854  -51.5306  -28.5456 O.3     1  UNL1       -0.5056
     12 C         -63.8222  -50.6442  -26.5936 C.ar    1  UNL1        0.0673
     13 C         -63.3405  -49.4956  -27.2902 C.ar    1  UNL1        0.1389
     14 O         -63.3311  -49.4282  -28.6867 O.3     1  UNL1       -0.5053
     15 C         -62.8141  -48.3974  -26.5672 C.ar    1  UNL1        0.0669
     16 C         -62.3623  -47.1506  -27.2439 C.2     1  UNL1        0.2026
     17 O         -62.1075  -47.1533  -28.4786 O.2     1  UNL1       -0.2887
     18 C         -62.1805  -45.8557  -26.4836 C.3     1  UNL1        0.1819
     19 H         -65.5559  -52.2046  -29.0388 H       1  UNL1        0.2922
     20 H         -63.2370  -50.2398  -29.2818 H       1  UNL1        0.2922
     21 C         -61.9659  -44.7849  -24.1666 C.3     1  UNL1        0.1777
     22 C         -60.3361  -43.1346  -24.3846 C.3     1  UNL1        0.1746
     23 O         -60.6491  -44.4924  -24.6111 O.3     1  UNL1       -0.3460
     24 C         -61.9586  -45.0770  -22.6725 C.2     1  UNL1        0.2064
     25 O         -63.0192  -45.3193  -22.1140 O.2     1  UNL1       -0.2909
     26 C         -60.6840  -45.1202  -21.8441 C.3     1  UNL1        0.1970
     27 O         -60.9021  -44.7387  -20.5070 O.3     1  UNL1       -0.3752
     28 H         -61.4437  -45.4471  -20.0745 H       1  UNL1        0.2110
     29 C         -60.0037  -46.5073  -21.9376 C.3     1  UNL1        0.1445
     30 C         -58.5176  -46.3770  -22.2883 C.3     1  UNL1        0.0348
     31 O         -60.1472  -47.1986  -20.7236 O.3     1  UNL1       -0.3815
     32 H         -59.9872  -48.1590  -20.9174 H       1  UNL1        0.2105
     33 O         -64.9402  -54.1237  -24.4322 O.3     1  UNL1       -0.4526
     34 C         -65.6904  -54.1848  -23.2168 C.3     1  UNL1        0.2901
     35 C         -67.0529  -53.4646  -23.4219 C.3     1  UNL1        0.1085
     36 C         -68.1490  -54.4868  -23.7521 C.3     1  UNL1        0.1531
     37 C         -68.2635  -55.4931  -22.5809 C.3     1  UNL1        0.1648
     38 O         -69.1497  -55.0038  -21.6059 O.3     1  UNL1       -0.3795
     39 C         -66.8764  -55.7389  -21.9230 C.3     1  UNL1        0.1480
     40 C         -66.7832  -57.1525  -21.3494 C.3     1  UNL1        0.0349
     41 O         -65.8415  -55.5582  -22.8735 O.3     1  UNL1       -0.3205
     42 H         -70.0689  -55.1479  -21.9527 H       1  UNL1        0.2105
     43 O         -67.7887  -55.2074  -24.9245 O.3     1  UNL1       -0.3301
     44 C         -68.8649  -55.3283  -25.8338 C.3     1  UNL1        0.2376
     45 C         -68.4199  -56.2525  -26.9839 C.3     1  UNL1        0.0931
     46 C         -69.2374  -56.0141  -28.2711 C.3     1  UNL1        0.1446
     47 O         -69.4246  -57.2227  -28.9603 O.3     1  UNL1       -0.3817
     48 C         -70.6034  -55.3967  -27.9312 C.3     1  UNL1        0.1644
     49 O         -71.3622  -55.1693  -29.0932 O.3     1  UNL1       -0.3795
     50 C         -70.4015  -54.0789  -27.1217 C.3     1  UNL1        0.1469
     51 C         -71.6117  -53.7630  -26.2378 C.3     1  UNL1        0.0348
     52 O         -69.2056  -54.0508  -26.3466 O.3     1  UNL1       -0.3304
     53 H         -68.5473  -57.4606  -29.3598 H       1  UNL1        0.2104
     54 H         -70.8327  -54.5789  -29.6908 H       1  UNL1        0.2105
     55 O         -63.0536  -44.8996  -27.0614 O.3     1  UNL1       -0.3249
     56 C         -62.4882  -44.2391  -28.1793 C.3     1  UNL1        0.2380
     57 C         -63.6071  -43.3812  -28.8179 C.3     1  UNL1        0.0935
     58 C         -63.6946  -42.0265  -28.1101 C.3     1  UNL1        0.1519
     59 C         -62.3345  -41.2927  -28.2251 C.3     1  UNL1        0.1648
     60 O         -62.3927  -40.3810  -29.2937 O.3     1  UNL1       -0.3795
     61 C         -61.1663  -42.2933  -28.4615 C.3     1  UNL1        0.1469
     62 C         -59.8278  -41.6846  -28.0426 C.3     1  UNL1        0.0348
     63 O         -61.3722  -43.4799  -27.7197 O.3     1  UNL1       -0.3304
     64 H         -61.7361  -39.6621  -29.1005 H       1  UNL1        0.2105
     65 O         -64.0006  -42.2487  -26.7374 O.3     1  UNL1       -0.3302
     66 C         -63.4714  -41.2274  -25.9082 C.3     1  UNL1        0.2376
     67 C         -63.0555  -41.8107  -24.5458 C.3     1  UNL1        0.0931
     68 C         -64.2787  -42.1881  -23.7013 C.3     1  UNL1        0.1450
     69 O         -63.8558  -42.5549  -22.4143 O.3     1  UNL1       -0.3817
     70 C         -65.2708  -41.0103  -23.6413 C.3     1  UNL1        0.1715
     71 C         -65.5742  -40.5683  -25.0875 C.3     1  UNL1        0.1473
     72 C         -66.5838  -39.4214  -25.1209 C.3     1  UNL1        0.0348
     73 O         -64.3899  -40.1524  -25.7512 O.3     1  UNL1       -0.3304
     74 H         -64.6126  -43.0378  -21.9911 H       1  UNL1        0.2104
     75 O         -64.7015  -39.9242  -22.9201 O.3     1  UNL1       -0.3279
     76 C         -64.0737  -40.3488  -21.7209 C.3     1  UNL1        0.2376
     77 C         -64.9354  -39.9337  -20.5070 C.3     1  UNL1        0.0907
     78 C         -64.0908  -39.7391  -19.2191 C.3     1  UNL1        0.1201
     79 C         -64.9471  -40.1114  -17.9913 C.3     1  UNL1        0.0321
     80 O         -63.7216  -38.3799  -19.1383 O.3     1  UNL1       -0.3841
     81 C         -62.8232  -40.6301  -19.3094 C.3     1  UNL1        0.1620
     82 O         -62.0087  -40.4709  -18.1728 O.3     1  UNL1       -0.3796
     83 C         -62.0102  -40.2486  -20.5811 C.3     1  UNL1        0.1468
     84 C         -61.1438  -41.4119  -21.0758 C.3     1  UNL1        0.0348
     85 O         -62.8032  -39.7298  -21.6466 O.3     1  UNL1       -0.3304
     86 H         -63.2174  -38.2440  -18.2938 H       1  UNL1        0.2103
     87 H         -62.2959  -41.1486  -17.5069 H       1  UNL1        0.2105
@<TRIPOS>BOND
     1    22    23    1
     2    23    21    1
     3    21    24    1
     4    24    25    2
     5    24    26    1
     6    26    27    1
     7    26    29    1
     8    29    30    1
     9    29    31    1
    10    21     1    1
    11     1     2    1
    12     2     3    1
    13     3     4   ar
    14     4     5   ar
    15     5     6   ar
    16     6     7   ar
    17     7    33    1
    18    33    34    1
    19    34    35    1
    20    35    36    1
    21    36    43    1
    22    43    44    1
    23    44    45    1
    24    45    46    1
    25    46    47    1
    26    46    48    1
    27    48    49    1
    28    48    50    1
    29    50    51    1
    30    50    52    1
    31    36    37    1
    32    37    38    1
    33    37    39    1
    34    39    40    1
    35    39    41    1
    36     7     8   ar
    37     8     9    1
    38     8    10   ar
    39    10    11    1
    40    10    12   ar
    41    12    13   ar
    42    13    14    1
    43    13    15   ar
    44    15    16    1
    45    16    17    2
    46    16    18    1
    47    18    55    1
    48    55    56    1
    49    56    57    1
    50    57    58    1
    51    58    65    1
    52    65    66    1
    53    66    67    1
    54    67    68    1
    55    68    69    1
    56    68    70    1
    57    70    75    1
    58    75    76    1
    59    76    77    1
    60    77    78    1
    61    78    79    1
    62    78    80    1
    63    78    81    1
    64    81    82    1
    65    81    83    1
    66    83    84    1
    67    83    85    1
    68    70    71    1
    69    71    72    1
    70    71    73    1
    71    58    59    1
    72    59    60    1
    73    59    61    1
    74    61    62    1
    75    61    63    1
    76    18     1    1
    77    63    56    1
    78    15     3   ar
    79    73    66    1
    80    12     5   ar
    81    85    76    1
    82    41    34    1
    83    52    44    1
    84    27    28    1
    85    31    32    1
    86    47    53    1
    87    49    54    1
    88    38    42    1
    89    11    19    1
    90    14    20    1
    91    69    74    1
    92    80    86    1
    93    82    87    1
    94    60    64    1
@<TRIPOS>MOLECULE
*****
 87 94 0 0 0
SMALL
GASTEIGER

@<TRIPOS>ATOM
      1 C         -63.5297  -46.9355  -28.3746 C.3     1  UNL1        0.0737
      2 C         -64.4710  -47.4469  -27.2638 C.3     1  UNL1        0.0323
      3 C         -63.6999  -48.2464  -26.2482 C.ar    1  UNL1       -0.0162
      4 C         -64.2926  -49.3561  -25.6440 C.ar    1  UNL1       -0.0038
      5 C         -63.5973  -50.1097  -24.6922 C.ar    1  UNL1        0.0085
      6 C         -64.2110  -51.2365  -24.1362 C.ar    1  UNL1        0.0370
      7 C         -63.5413  -52.0342  -23.1993 C.ar    1  UNL1        0.1402
      8 C         -62.2115  -51.7265  -22.8520 C.ar    1  UNL1        0.0459
      9 C         -61.4574  -52.6264  -21.9013 C.3     1  UNL1        0.0374
     10 C         -61.5606  -50.6199  -23.4548 C.ar    1  UNL1        0.1354
     11 O         -60.1898  -50.4234  -23.2589 O.3     1  UNL1       -0.5056
     12 C         -62.2836  -49.7437  -24.3091 C.ar    1  UNL1        0.0673
     13 C         -61.7325  -48.5371  -24.8354 C.ar    1  UNL1        0.1389
     14 O         -60.5299  -48.0051  -24.3604 O.3     1  UNL1       -0.5053
     15 C         -62.4273  -47.8195  -25.8394 C.ar    1  UNL1        0.0669
     16 C         -61.8623  -46.5936  -26.4676 C.2     1  UNL1        0.2026
     17 O         -60.9299  -45.9609  -25.9021 O.2     1  UNL1       -0.2887
     18 C         -62.3880  -46.0604  -27.7818 C.3     1  UNL1        0.1819
     19 H         -59.5999  -51.0411  -22.7172 H       1  UNL1        0.2922
     20 H         -60.2005  -48.1340  -23.4136 H       1  UNL1        0.2922
     21 C         -64.3001  -46.1617  -29.4831 C.3     1  UNL1        0.1777
     22 C         -65.6477  -44.2662  -29.6192 C.3     1  UNL1        0.1746
     23 O         -65.3864  -45.4543  -28.9028 O.3     1  UNL1       -0.3460
     24 C         -64.8107  -47.1059  -30.5628 C.2     1  UNL1        0.2064
     25 O         -64.3375  -48.2314  -30.6336 O.2     1  UNL1       -0.2909
     26 C         -65.9144  -46.7278  -31.5382 C.3     1  UNL1        0.1970
     27 O         -65.4093  -46.1664  -32.7259 O.3     1  UNL1       -0.3752
     28 H         -64.9410  -46.8835  -33.2246 H       1  UNL1        0.2110
     29 C         -66.8420  -47.9328  -31.8267 C.3     1  UNL1        0.1445
     30 C         -66.6053  -48.4947  -33.2327 C.3     1  UNL1        0.0348
     31 O         -66.6363  -48.9407  -30.8707 O.3     1  UNL1       -0.3815
     32 H         -67.4338  -49.5313  -30.8974 H       1  UNL1        0.2105
     33 O         -64.1639  -53.1483  -22.6057 O.3     1  UNL1       -0.4526
     34 C         -64.6558  -54.3018  -23.2923 C.3     1  UNL1        0.2901
     35 C         -64.8738  -55.4506  -22.2676 C.3     1  UNL1        0.1085
     36 C         -66.3446  -55.5014  -21.8324 C.3     1  UNL1        0.1531
     37 C         -67.2274  -55.7435  -23.0813 C.3     1  UNL1        0.1648
     38 O         -67.3537  -57.1217  -23.3261 O.3     1  UNL1       -0.3795
     39 C         -66.6118  -55.0632  -24.3363 C.3     1  UNL1        0.1480
     40 C         -67.7013  -54.6329  -25.3181 C.3     1  UNL1        0.0349
     41 O         -65.8560  -53.9257  -23.9591 O.3     1  UNL1       -0.3205
     42 H         -68.0102  -57.4729  -22.6690 H       1  UNL1        0.2105
     43 O         -66.7143  -54.2521  -21.2613 O.3     1  UNL1       -0.3301
     44 C         -67.8057  -54.3698  -20.3699 C.3     1  UNL1        0.2376
     45 C         -67.2478  -54.6692  -18.9650 C.3     1  UNL1        0.0931
     46 C         -68.2877  -55.3668  -18.0627 C.3     1  UNL1        0.1446
     47 O         -68.1391  -54.9451  -16.7320 O.3     1  UNL1       -0.3817
     48 C         -69.7125  -55.0541  -18.5473 C.3     1  UNL1        0.1644
     49 O         -70.6747  -55.6842  -17.7381 O.3     1  UNL1       -0.3795
     50 C         -69.8675  -55.4752  -20.0411 C.3     1  UNL1        0.1469
     51 C         -70.9563  -54.6650  -20.7506 C.3     1  UNL1        0.0348
     52 O         -68.6539  -55.4271  -20.7870 O.3     1  UNL1       -0.3304
     53 H         -67.3087  -55.3694  -16.3907 H       1  UNL1        0.2104
     54 H         -70.4902  -56.6599  -17.7508 H       1  UNL1        0.2105
     55 O         -61.3080  -46.0592  -28.7003 O.3     1  UNL1       -0.3249
     56 C         -61.6604  -45.5339  -29.9674 C.3     1  UNL1        0.2380
     57 C         -62.5098  -44.2646  -29.7163 C.3     1  UNL1        0.0935
     58 C         -61.5935  -43.0552  -29.5125 C.3     1  UNL1        0.1519
     59 C         -60.7072  -42.8589  -30.7685 C.3     1  UNL1        0.1648
     60 O         -61.2884  -41.8795  -31.5929 O.3     1  UNL1       -0.3795
     61 C         -60.5531  -44.1843  -31.5691 C.3     1  UNL1        0.1469
     62 C         -59.3030  -44.1531  -32.4489 C.3     1  UNL1        0.0348
     63 O         -60.4554  -45.2869  -30.6884 O.3     1  UNL1       -0.3304
     64 H         -60.5557  -41.4740  -32.1259 H       1  UNL1        0.2105
     65 O         -60.7659  -43.2966  -28.3794 O.3     1  UNL1       -0.3302
     66 C         -60.7496  -42.1892  -27.4939 C.3     1  UNL1        0.2376
     67 C         -60.3922  -42.6520  -26.0700 C.3     1  UNL1        0.0931
     68 C         -61.5409  -43.4441  -25.4337 C.3     1  UNL1        0.1450
     69 O         -61.2365  -43.6976  -24.0873 O.3     1  UNL1       -0.3817
     70 C         -62.8638  -42.6644  -25.5630 C.3     1  UNL1        0.1715
     71 C         -63.0561  -42.2944  -27.0480 C.3     1  UNL1        0.1473
     72 C         -64.3698  -41.5462  -27.2717 C.3     1  UNL1        0.0348
     73 O         -61.9860  -41.4856  -27.5133 O.3     1  UNL1       -0.3304
     74 H         -61.8480  -44.4193  -23.7866 H       1  UNL1        0.2104
     75 O         -62.8142  -41.4786  -24.7786 O.3     1  UNL1       -0.3279
     76 C         -63.3554  -41.6720  -23.4817 C.3     1  UNL1        0.2376
     77 C         -64.5122  -40.6747  -23.2462 C.3     1  UNL1        0.0907
     78 C         -64.7105  -40.3407  -21.7432 C.3     1  UNL1        0.1201
     79 C         -66.2035  -40.0550  -21.4809 C.3     1  UNL1        0.0321
     80 O         -63.9536  -39.1876  -21.4469 O.3     1  UNL1       -0.3841
     81 C         -64.2109  -41.5381  -20.8916 C.3     1  UNL1        0.1620
     82 O         -64.3466  -41.2745  -19.5159 O.3     1  UNL1       -0.3796
     83 C         -62.7139  -41.8167  -21.2157 C.3     1  UNL1        0.1468
     84 C         -62.3283  -43.2720  -20.9290 C.3     1  UNL1        0.0348
     85 O         -62.3250  -41.4494  -22.5375 O.3     1  UNL1       -0.3304
     86 H         -64.1121  -38.9469  -20.4968 H       1  UNL1        0.2103
     87 H         -65.2421  -41.6018  -19.2398 H       1  UNL1        0.2105
@<TRIPOS>BOND
     1    22    23    1
     2    23    21    1
     3    21    24    1
     4    24    25    2
     5    24    26    1
     6    26    27    1
     7    26    29    1
     8    29    30    1
     9    29    31    1
    10    21     1    1
    11     1     2    1
    12     2     3    1
    13     3     4   ar
    14     4     5   ar
    15     5     6   ar
    16     6     7   ar
    17     7    33    1
    18    33    34    1
    19    34    35    1
    20    35    36    1
    21    36    43    1
    22    43    44    1
    23    44    45    1
    24    45    46    1
    25    46    47    1
    26    46    48    1
    27    48    49    1
    28    48    50    1
    29    50    51    1
    30    50    52    1
    31    36    37    1
    32    37    38    1
    33    37    39    1
    34    39    40    1
    35    39    41    1
    36     7     8   ar
    37     8     9    1
    38     8    10   ar
    39    10    11    1
    40    10    12   ar
    41    12    13   ar
    42    13    14    1
    43    13    15   ar
    44    15    16    1
    45    16    17    2
    46    16    18    1
    47    18    55    1
    48    55    56    1
    49    56    57    1
    50    57    58    1
    51    58    65    1
    52    65    66    1
    53    66    67    1
    54    67    68    1
    55    68    69    1
    56    68    70    1
    57    70    75    1
    58    75    76    1
    59    76    77    1
    60    77    78    1
    61    78    79    1
    62    78    80    1
    63    78    81    1
    64    81    82    1
    65    81    83    1
    66    83    84    1
    67    83    85    1
    68    70    71    1
    69    71    72    1
    70    71    73    1
    71    58    59    1
    72    59    60    1
    73    59    61    1
    74    61    62    1
    75    61    63    1
    76    18     1    1
    77    63    56    1
    78    15     3   ar
    79    73    66    1
    80    12     5   ar
    81    85    76    1
    82    41    34    1
    83    52    44    1
    84    27    28    1
    85    31    32    1
    86    47    53    1
    87    49    54    1
    88    38    42    1
    89    11    19    1
    90    14    20    1
    91    69    74    1
    92    80    86    1
    93    82    87    1
    94    60    64    1
@<TRIPOS>MOLECULE
*****
 87 94 0 0 0
SMALL
GASTEIGER

@<TRIPOS>ATOM
      1 C         -63.9070  -42.3549  -28.8860 C.3     1  UNL1        0.0737
      2 C         -64.2921  -41.4714  -27.6807 C.3     1  UNL1        0.0323
      3 C         -63.3089  -41.6582  -26.5566 C.ar    1  UNL1       -0.0162
      4 C         -63.7526  -41.6227  -25.2339 C.ar    1  UNL1       -0.0038
      5 C         -62.8554  -41.7868  -24.1730 C.ar    1  UNL1        0.0085
      6 C         -63.3435  -41.7821  -22.8626 C.ar    1  UNL1        0.0370
      7 C         -62.4841  -41.9690  -21.7722 C.ar    1  UNL1        0.1402
      8 C         -61.1170  -42.2175  -22.0021 C.ar    1  UNL1        0.0459
      9 C         -60.1989  -42.4965  -20.8353 C.3     1  UNL1        0.0374
     10 C         -60.6231  -42.2825  -23.3301 C.ar    1  UNL1        0.1354
     11 O         -59.3144  -42.7141  -23.5690 O.3     1  UNL1       -0.5056
     12 C         -61.4737  -41.9703  -24.4252 C.ar    1  UNL1        0.0673
     13 C         -61.0096  -41.8785  -25.7716 C.ar    1  UNL1        0.1389
     14 O         -59.6469  -41.8512  -26.0834 O.3     1  UNL1       -0.5053
     15 C         -61.9381  -41.7694  -26.8354 C.ar    1  UNL1        0.0669
     16 C         -61.5064  -41.7391  -28.2599 C.2     1  UNL1        0.2026
     17 O         -60.3130  -41.4619  -28.5573 O.2     1  UNL1       -0.2887
     18 C         -62.4729  -42.0214  -29.3887 C.3     1  UNL1        0.1819
     19 H         -58.6746  -43.0128  -22.8449 H       1  UNL1        0.2922
     20 H         -58.9424  -41.4748  -25.4641 H       1  UNL1        0.2922
     21 C         -64.9387  -42.2436  -30.0455 C.3     1  UNL1        0.1777
     22 C         -65.2681  -39.9997  -30.5780 C.3     1  UNL1        0.1746
     23 O         -65.7591  -41.1017  -29.8449 O.3     1  UNL1       -0.3460
     24 C         -65.8011  -43.4947  -30.1394 C.2     1  UNL1        0.2064
     25 O         -66.9981  -43.3707  -30.3574 O.2     1  UNL1       -0.2909
     26 C         -65.2357  -44.9008  -30.0130 C.3     1  UNL1        0.1970
     27 O         -66.0410  -45.7309  -29.2110 O.3     1  UNL1       -0.3752
     28 H         -66.8851  -45.9001  -29.7021 H       1  UNL1        0.2110
     29 C         -64.9798  -45.5273  -31.4050 C.3     1  UNL1        0.1445
     30 C         -65.3422  -47.0162  -31.4214 C.3     1  UNL1        0.0348
     31 O         -65.7206  -44.8465  -32.3848 O.3     1  UNL1       -0.3815
     32 H         -65.3049  -45.0593  -33.2609 H       1  UNL1        0.2105
     33 O         -62.9594  -41.9282  -20.4478 O.3     1  UNL1       -0.4526
     34 C         -63.2264  -43.0591  -19.6150 C.3     1  UNL1        0.2901
     35 C         -64.3039  -42.6739  -18.5624 C.3     1  UNL1        0.1085
     36 C         -65.6930  -43.1225  -19.0365 C.3     1  UNL1        0.1531
     37 C         -65.6825  -44.6585  -19.2324 C.3     1  UNL1        0.1648
     38 O         -65.9942  -45.3038  -18.0234 O.3     1  UNL1       -0.3795
     39 C         -64.2888  -45.1462  -19.7191 C.3     1  UNL1        0.1480
     40 C         -64.4178  -46.3920  -20.5951 C.3     1  UNL1        0.0349
     41 O         -63.6414  -44.1269  -20.4601 O.3     1  UNL1       -0.3205
     42 H         -66.9761  -45.2248  -17.8986 H       1  UNL1        0.2105
     43 O         -65.9859  -42.5159  -20.2894 O.3     1  UNL1       -0.3301
     44 C         -66.2436  -41.1307  -20.1694 C.3     1  UNL1        0.2376
     45 C         -67.4155  -40.7776  -21.1057 C.3     1  UNL1        0.0931
     46 C         -67.4175  -39.2847  -21.4975 C.3     1  UNL1        0.1446
     47 O         -68.7348  -38.8156  -21.6224 O.3     1  UNL1       -0.3817
     48 C         -66.6712  -38.4532  -20.4419 C.3     1  UNL1        0.1644
     49 O         -66.6601  -37.0891  -20.7837 O.3     1  UNL1       -0.3795
     50 C         -65.2224  -39.0024  -20.2634 C.3     1  UNL1        0.1469
     51 C         -64.6611  -38.6860  -18.8740 C.3     1  UNL1        0.0348
     52 O         -65.0904  -40.3941  -20.5419 O.3     1  UNL1       -0.3304
     53 H         -69.0983  -39.2094  -22.4582 H       1  UNL1        0.2104
     54 H         -66.2405  -37.0040  -21.6797 H       1  UNL1        0.2105
     55 O         -61.9791  -43.1457  -30.0974 O.3     1  UNL1       -0.3249
     56 C         -60.6947  -42.9285  -30.6532 C.3     1  UNL1        0.2380
     57 C         -59.6700  -43.6181  -29.7205 C.3     1  UNL1        0.0935
     58 C         -59.5385  -45.0974  -30.0922 C.3     1  UNL1        0.1519
     59 C         -59.0794  -45.2224  -31.5670 C.3     1  UNL1        0.1648
     60 O         -57.6875  -45.4174  -31.6005 O.3     1  UNL1       -0.3795
     61 C         -59.4436  -43.9505  -32.3862 C.3     1  UNL1        0.1469
     62 C         -59.5015  -44.2582  -33.8827 C.3     1  UNL1        0.0348
     63 O         -60.7012  -43.4441  -31.9825 O.3     1  UNL1       -0.3304
     64 H         -57.4801  -45.8992  -32.4432 H       1  UNL1        0.2105
     65 O         -60.8087  -45.7212  -29.9350 O.3     1  UNL1       -0.3302
     66 C         -61.4786  -45.2653  -28.7714 C.3     1  UNL1        0.2376
     67 C         -60.5288  -45.3052  -27.5608 C.3     1  UNL1        0.0931
     68 C         -60.2452  -46.7460  -27.1186 C.3     1  UNL1        0.1450
     69 O         -59.5165  -46.7259  -25.9194 O.3     1  UNL1       -0.3817
     70 C         -61.5653  -47.5227  -26.9492 C.3     1  UNL1        0.1715
     71 C         -62.3755  -47.3766  -28.2536 C.3     1  UNL1        0.1473
     72 C         -63.6910  -48.1513  -28.1839 C.3     1  UNL1        0.0348
     73 O         -62.6635  -46.0126  -28.5231 O.3     1  UNL1       -0.3304
     74 H         -59.1262  -47.6315  -25.8064 H       1  UNL1        0.2104
     75 O         -62.3125  -46.9910  -25.8616 O.3     1  UNL1       -0.3279
     76 C         -62.0804  -47.7007  -24.6554 C.3     1  UNL1        0.2376
     77 C         -61.3124  -46.8005  -23.6613 C.3     1  UNL1        0.0907
     78 C         -60.4592  -47.6203  -22.6563 C.3     1  UNL1        0.1201
     79 C         -60.3851  -46.8591  -21.3167 C.3     1  UNL1        0.0321
     80 O         -59.1608  -47.7549  -23.1914 O.3     1  UNL1       -0.3841
     81 C         -61.1058  -49.0190  -22.4712 C.3     1  UNL1        0.1620
     82 O         -60.3540  -49.8127  -21.5850 O.3     1  UNL1       -0.3796
     83 C         -61.1971  -49.7352  -23.8505 C.3     1  UNL1        0.1468
     84 C         -62.3195  -50.7783  -23.8796 C.3     1  UNL1        0.0348
     85 O         -61.3118  -48.8489  -24.9616 O.3     1  UNL1       -0.3304
     86 H         -58.6012  -48.2421  -22.5316 H       1  UNL1        0.2103
     87 H         -60.7113  -49.6551  -20.6724 H       1  UNL1        0.2105
@<TRIPOS>BOND
     1    22    23    1
     2    23    21    1
     3    21    24    1
     4    24    25    2
     5    24    26    1
     6    26    27    1
     7    26    29    1
     8    29    30    1
     9    29    31    1
    10    21     1    1
    11     1     2    1
    12     2     3    1
    13     3     4   ar
    14     4     5   ar
    15     5     6   ar
    16     6     7   ar
    17     7    33    1
    18    33    34    1
    19    34    35    1
    20    35    36    1
    21    36    43    1
    22    43    44    1
    23    44    45    1
    24    45    46    1
    25    46    47    1
    26    46    48    1
    27    48    49    1
    28    48    50    1
    29    50    51    1
    30    50    52    1
    31    36    37    1
    32    37    38    1
    33    37    39    1
    34    39    40    1
    35    39    41    1
    36     7     8   ar
    37     8     9    1
    38     8    10   ar
    39    10    11    1
    40    10    12   ar
    41    12    13   ar
    42    13    14    1
    43    13    15   ar
    44    15    16    1
    45    16    17    2
    46    16    18    1
    47    18    55    1
    48    55    56    1
    49    56    57    1
    50    57    58    1
    51    58    65    1
    52    65    66    1
    53    66    67    1
    54    67    68    1
    55    68    69    1
    56    68    70    1
    57    70    75    1
    58    75    76    1
    59    76    77    1
    60    77    78    1
    61    78    79    1
    62    78    80    1
    63    78    81    1
    64    81    82    1
    65    81    83    1
    66    83    84    1
    67    83    85    1
    68    70    71    1
    69    71    72    1
    70    71    73    1
    71    58    59    1
    72    59    60    1
    73    59    61    1
    74    61    62    1
    75    61    63    1
    76    18     1    1
    77    63    56    1
    78    15     3   ar
    79    73    66    1
    80    12     5   ar
    81    85    76    1
    82    41    34    1
    83    52    44    1
    84    27    28    1
    85    31    32    1
    86    47    53    1
    87    49    54    1
    88    38    42    1
    89    11    19    1
    90    14    20    1
    91    69    74    1
    92    80    86    1
    93    82    87    1
    94    60    64    1
@<TRIPOS>MOLECULE
*****
 87 94 0 0 0
SMALL
GASTEIGER

@<TRIPOS>ATOM
      1 C         -62.4058  -45.1211  -23.2349 C.3     1  UNL1        0.0737
      2 C         -61.8252  -46.5109  -22.8992 C.3     1  UNL1        0.0323
      3 C         -62.3502  -47.5455  -23.8580 C.ar    1  UNL1       -0.0162
      4 C         -62.6143  -48.8393  -23.4062 C.ar    1  UNL1       -0.0038
      5 C         -63.0960  -49.8189  -24.2811 C.ar    1  UNL1        0.0085
      6 C         -63.3838  -51.0935  -23.7832 C.ar    1  UNL1        0.0370
      7 C         -63.8923  -52.0964  -24.6187 C.ar    1  UNL1        0.1402
      8 C         -64.1668  -51.8008  -25.9681 C.ar    1  UNL1        0.0459
      9 C         -64.7871  -52.8544  -26.8554 C.3     1  UNL1        0.0374
     10 C         -63.9333  -50.4942  -26.4680 C.ar    1  UNL1        0.1354
     11 O         -64.3786  -50.1450  -27.7470 O.3     1  UNL1       -0.5056
     12 C         -63.3031  -49.5178  -25.6497 C.ar    1  UNL1        0.0673
     13 C         -62.9114  -48.2325  -26.1306 C.ar    1  UNL1        0.1389
     14 O         -62.8988  -47.9261  -27.4947 O.3     1  UNL1       -0.5053
     15 C         -62.4801  -47.2366  -25.2206 C.ar    1  UNL1        0.0669
     16 C         -62.1264  -45.8606  -25.6657 C.2     1  UNL1        0.2026
     17 O         -61.8645  -45.6315  -26.8775 O.2     1  UNL1       -0.2887
     18 C         -62.0547  -44.7050  -24.6924 C.3     1  UNL1        0.1819
     19 H         -64.8896  -50.7672  -28.3592 H       1  UNL1        0.2922
     20 H         -62.7357  -48.6136  -28.2174 H       1  UNL1        0.2922
     21 C         -61.9418  -44.0339  -22.2230 C.3     1  UNL1        0.1777
     22 C         -59.7259  -43.3255  -22.3460 C.3     1  UNL1        0.1746
     23 O         -60.6053  -44.2970  -21.8210 O.3     1  UNL1       -0.3460
     24 C         -62.8531  -43.9887  -21.0043 C.2     1  UNL1        0.2064
     25 O         -63.1894  -45.0412  -20.4802 O.2     1  UNL1       -0.2909
     26 C         -63.3365  -42.6888  -20.3804 C.3     1  UNL1        0.1970
     27 O         -64.2767  -42.9047  -19.3555 O.3     1  UNL1       -0.3752
     28 H         -63.8029  -43.3260  -18.5937 H       1  UNL1        0.2110
     29 C         -62.1472  -41.8277  -19.8910 C.3     1  UNL1        0.1445
     30 C         -61.9649  -40.5813  -20.7637 C.3     1  UNL1        0.0348
     31 O         -62.3442  -41.4474  -18.5535 O.3     1  UNL1       -0.3815
     32 H         -61.4573  -41.1814  -18.1952 H       1  UNL1        0.2105
     33 O         -64.1496  -53.3933  -24.1357 O.3     1  UNL1       -0.4526
     34 C         -64.8734  -53.7197  -22.9468 C.3     1  UNL1        0.2901
     35 C         -66.2059  -52.9190  -22.9253 C.3     1  UNL1        0.1085
     36 C         -67.3550  -53.7865  -23.4565 C.3     1  UNL1        0.1531
     37 C         -67.4882  -55.0427  -22.5611 C.3     1  UNL1        0.1648
     38 O         -68.3283  -54.7719  -21.4674 O.3     1  UNL1       -0.3795
     39 C         -66.0990  -55.4951  -22.0295 C.3     1  UNL1        0.1480
     40 C         -66.0574  -57.0084  -21.8193 C.3     1  UNL1        0.0349
     41 O         -65.0792  -55.1284  -22.9421 O.3     1  UNL1       -0.3205
     42 H         -69.2610  -54.7913  -21.8077 H       1  UNL1        0.2105
     43 O         -67.0552  -54.2130  -24.7801 O.3     1  UNL1       -0.3301
     44 C         -68.1369  -54.8955  -25.3834 C.3     1  UNL1        0.2376
     45 C         -67.7547  -55.2045  -26.8440 C.3     1  UNL1        0.0931
     46 C         -68.9953  -55.4089  -27.7390 C.3     1  UNL1        0.1446
     47 O         -68.7363  -56.3838  -28.7154 O.3     1  UNL1       -0.3817
     48 C         -70.2032  -55.8366  -26.8902 C.3     1  UNL1        0.1644
     49 O         -71.3452  -56.0250  -27.6891 O.3     1  UNL1       -0.3795
     50 C         -70.4643  -54.7810  -25.7720 C.3     1  UNL1        0.1469
     51 C         -71.1758  -55.3963  -24.5635 C.3     1  UNL1        0.0348
     52 O         -69.2967  -54.0801  -25.3510 O.3     1  UNL1       -0.3304
     53 H         -68.1201  -55.9690  -29.3743 H       1  UNL1        0.2104
     54 H         -71.5207  -55.1758  -28.1729 H       1  UNL1        0.2105
     55 O         -62.9985  -43.7357  -25.1161 O.3     1  UNL1       -0.3249
     56 C         -62.9729  -42.5582  -24.3296 C.3     1  UNL1        0.2380
     57 C         -62.6650  -41.3781  -25.2825 C.3     1  UNL1        0.0935
     58 C         -63.9599  -40.8745  -25.9253 C.3     1  UNL1        0.1519
     59 C         -64.9445  -40.4182  -24.8190 C.3     1  UNL1        0.1648
     60 O         -64.8513  -39.0237  -24.6671 O.3     1  UNL1       -0.3795
     61 C         -64.6330  -41.1089  -23.4597 C.3     1  UNL1        0.1469
     62 C         -65.8597  -41.1052  -22.5472 C.3     1  UNL1        0.0348
     63 O         -64.2299  -42.4490  -23.6656 O.3     1  UNL1       -0.3304
     64 H         -65.7215  -38.7102  -24.3068 H       1  UNL1        0.2105
     65 O         -64.5423  -41.9387  -26.6708 O.3     1  UNL1       -0.3302
     66 C         -64.4568  -41.7112  -28.0678 C.3     1  UNL1        0.2376
     67 C         -65.0286  -42.9147  -28.8386 C.3     1  UNL1        0.0931
     68 C         -64.1019  -44.1328  -28.7424 C.3     1  UNL1        0.1450
     69 O         -64.5781  -45.1433  -29.5921 O.3     1  UNL1       -0.3817
     70 C         -62.6588  -43.7370  -29.1104 C.3     1  UNL1        0.1715
     71 C         -62.2587  -42.5289  -28.2389 C.3     1  UNL1        0.1473
     72 C         -60.8205  -42.0921  -28.5159 C.3     1  UNL1        0.0348
     73 O         -63.1225  -41.4262  -28.4709 O.3     1  UNL1       -0.3304
     74 H         -64.1324  -45.9852  -29.3134 H       1  UNL1        0.2104
     75 O         -62.5825  -43.3794  -30.4852 O.3     1  UNL1       -0.3279
     76 C         -61.5070  -44.0256  -31.1472 C.3     1  UNL1        0.2376
     77 C         -60.7547  -44.9368  -30.1512 C.3     1  UNL1        0.0907
     78 C         -59.2665  -45.1418  -30.5425 C.3     1  UNL1        0.1201
     79 C         -58.8117  -46.5433  -30.0863 C.3     1  UNL1        0.0321
     80 O         -58.4998  -44.1610  -29.8789 O.3     1  UNL1       -0.3841
     81 C         -59.1235  -44.9788  -32.0793 C.3     1  UNL1        0.1620
     82 O         -57.7842  -45.1315  -32.4837 O.3     1  UNL1       -0.3796
     83 C         -59.6294  -43.5681  -32.5009 C.3     1  UNL1        0.1468
     84 C         -60.0979  -43.5414  -33.9599 C.3     1  UNL1        0.0348
     85 O         -60.6344  -43.0288  -31.6450 O.3     1  UNL1       -0.3304
     86 H         -57.5429  -44.3160  -30.0937 H       1  UNL1        0.2103
     87 H         -57.6461  -46.0926  -32.6897 H       1  UNL1        0.2105
@<TRIPOS>BOND
     1    22    23    1
     2    23    21    1
     3    21    24    1
     4    24    25    2
     5    24    26    1
     6    26    27    1
     7    26    29    1
     8    29    30    1
     9    29    31    1
    10    21     1    1
    11     1     2    1
    12     2     3    1
    13     3     4   ar
    14     4     5   ar
    15     5     6   ar
    16     6     7   ar
    17     7    33    1
    18    33    34    1
    19    34    35    1
    20    35    36    1
    21    36    43    1
    22    43    44    1
    23    44    45    1
    24    45    46    1
    25    46    47    1
    26    46    48    1
    27    48    49    1
    28    48    50    1
    29    50    51    1
    30    50    52    1
    31    36    37    1
    32    37    38    1
    33    37    39    1
    34    39    40    1
    35    39    41    1
    36     7     8   ar
    37     8     9    1
    38     8    10   ar
    39    10    11    1
    40    10    12   ar
    41    12    13   ar
    42    13    14    1
    43    13    15   ar
    44    15    16    1
    45    16    17    2
    46    16    18    1
    47    18    55    1
    48    55    56    1
    49    56    57    1
    50    57    58    1
    51    58    65    1
    52    65    66    1
    53    66    67    1
    54    67    68    1
    55    68    69    1
    56    68    70    1
    57    70    75    1
    58    75    76    1
    59    76    77    1
    60    77    78    1
    61    78    79    1
    62    78    80    1
    63    78    81    1
    64    81    82    1
    65    81    83    1
    66    83    84    1
    67    83    85    1
    68    70    71    1
    69    71    72    1
    70    71    73    1
    71    58    59    1
    72    59    60    1
    73    59    61    1
    74    61    62    1
    75    61    63    1
    76    18     1    1
    77    63    56    1
    78    15     3   ar
    79    73    66    1
    80    12     5   ar
    81    85    76    1
    82    41    34    1
    83    52    44    1
    84    27    28    1
    85    31    32    1
    86    47    53    1
    87    49    54    1
    88    38    42    1
    89    11    19    1
    90    14    20    1
    91    69    74    1
    92    80    86    1
    93    82    87    1
    94    60    64    1
@<TRIPOS>MOLECULE
*****
 87 94 0 0 0
SMALL
GASTEIGER

@<TRIPOS>ATOM
      1 C         -62.3847  -45.9678  -24.8872 C.3     1  UNL1        0.0737
      2 C         -61.9113  -47.3319  -24.3425 C.3     1  UNL1        0.0323
      3 C         -62.5613  -48.4560  -25.1034 C.ar    1  UNL1       -0.0162
      4 C         -62.9159  -49.6303  -24.4378 C.ar    1  UNL1       -0.0038
      5 C         -63.5147  -50.6908  -25.1263 C.ar    1  UNL1        0.0085
      6 C         -63.8894  -51.8365  -24.4177 C.ar    1  UNL1        0.0370
      7 C         -64.5152  -52.9111  -25.0628 C.ar    1  UNL1        0.1402
      8 C         -64.8186  -52.8141  -26.4347 C.ar    1  UNL1        0.0459
      9 C         -65.5622  -53.9367  -27.1195 C.3     1  UNL1        0.0374
     10 C         -64.4953  -51.6322  -27.1491 C.ar    1  UNL1        0.1354
     11 O         -64.9612  -51.4556  -28.4559 O.3     1  UNL1       -0.5056
     12 C         -63.7512  -50.5975  -26.5198 C.ar    1  UNL1        0.0673
     13 C         -63.2716  -49.4478  -27.2161 C.ar    1  UNL1        0.1389
     14 O         -63.2887  -49.3686  -28.6119 O.3     1  UNL1       -0.5053
     15 C         -62.7201  -48.3611  -26.4944 C.ar    1  UNL1        0.0669
     16 C         -62.2690  -47.1131  -27.1694 C.2     1  UNL1        0.2026
     17 O         -62.0384  -47.1078  -28.4088 O.2     1  UNL1       -0.2887
     18 C         -62.0594  -45.8266  -26.4020 C.3     1  UNL1        0.1819
     19 H         -65.5480  -52.1196  -28.9435 H       1  UNL1        0.2922
     20 H         -63.2145  -50.1759  -29.2155 H       1  UNL1        0.2922
     21 C         -61.7887  -44.7779  -24.0809 C.3     1  UNL1        0.1777
     22 C         -60.1750  -43.2364  -24.7496 C.3     1  UNL1        0.1746
     23 O         -60.4282  -44.5910  -24.4432 O.3     1  UNL1       -0.3460
     24 C         -61.9005  -45.0157  -22.5813 C.2     1  UNL1        0.2064
     25 O         -62.9414  -45.4754  -22.1332 O.2     1  UNL1       -0.2909
     26 C         -60.7597  -44.7438  -21.6131 C.3     1  UNL1        0.1970
     27 O         -59.6418  -45.5623  -21.8606 O.3     1  UNL1       -0.3752
     28 H         -59.2428  -45.2777  -22.7221 H       1  UNL1        0.2110
     29 C         -60.3778  -43.2438  -21.6067 C.3     1  UNL1        0.1445
     30 C         -60.9716  -42.5226  -20.3919 C.3     1  UNL1        0.0348
     31 O         -58.9808  -43.1010  -21.6089 O.3     1  UNL1       -0.3815
     32 H         -58.7854  -42.1765  -21.9136 H       1  UNL1        0.2105
     33 O         -64.8620  -54.0841  -24.3661 O.3     1  UNL1       -0.4526
     34 C         -65.6219  -54.1504  -23.1569 C.3     1  UNL1        0.2901
     35 C         -66.9804  -53.4243  -23.3682 C.3     1  UNL1        0.1085
     36 C         -68.0772  -54.4408  -23.7136 C.3     1  UNL1        0.1531
     37 C         -68.2042  -55.4541  -22.5496 C.3     1  UNL1        0.1648
     38 O         -69.0965  -54.9680  -21.5786 O.3     1  UNL1       -0.3795
     39 C         -66.8232  -55.7086  -21.8824 C.3     1  UNL1        0.1480
     40 C         -66.7391  -57.1261  -21.3171 C.3     1  UNL1        0.0349
     41 O         -65.7802  -55.5253  -22.8236 O.3     1  UNL1       -0.3205
     42 H         -70.0134  -55.1068  -21.9336 H       1  UNL1        0.2105
     43 O         -67.7100  -55.1551  -24.8877 O.3     1  UNL1       -0.3301
     44 C         -68.7880  -55.2943  -25.7921 C.3     1  UNL1        0.2376
     45 C         -68.3410  -56.2310  -26.9312 C.3     1  UNL1        0.0931
     46 C         -69.1635  -56.0143  -28.2191 C.3     1  UNL1        0.1446
     47 O         -69.3456  -57.2330  -28.8916 O.3     1  UNL1       -0.3817
     48 C         -70.5320  -55.4003  -27.8834 C.3     1  UNL1        0.1644
     49 O         -71.2953  -55.1927  -29.0461 O.3     1  UNL1       -0.3795
     50 C         -70.3354  -54.0708  -27.0919 C.3     1  UNL1        0.1469
     51 C         -71.5449  -53.7501  -26.2089 C.3     1  UNL1        0.0348
     52 O         -69.1376  -54.0256  -26.3207 O.3     1  UNL1       -0.3304
     53 H         -68.4681  -57.4711  -29.2906 H       1  UNL1        0.2104
     54 H         -70.7710  -54.6072  -29.6530 H       1  UNL1        0.2105
     55 O         -62.9338  -44.8570  -26.9546 O.3     1  UNL1       -0.3249
     56 C         -62.3832  -44.1918  -28.0771 C.3     1  UNL1        0.2380
     57 C         -63.5326  -43.4045  -28.7515 C.3     1  UNL1        0.0935
     58 C         -63.6998  -42.0418  -28.0741 C.3     1  UNL1        0.1519
     59 C         -62.3763  -41.2430  -28.1829 C.3     1  UNL1        0.1648
     60 O         -62.4618  -40.3573  -29.2714 O.3     1  UNL1       -0.3795
     61 C         -61.1557  -42.1880  -28.3793 C.3     1  UNL1        0.1469
     62 C         -59.8566  -41.5043  -27.9521 C.3     1  UNL1        0.0348
     63 O         -61.3146  -43.3682  -27.6159 O.3     1  UNL1       -0.3304
     64 H         -61.8454  -39.6025  -29.0830 H       1  UNL1        0.2105
     65 O         -64.0175  -42.2511  -26.7021 O.3     1  UNL1       -0.3302
     66 C         -63.5150  -41.2102  -25.8807 C.3     1  UNL1        0.2376
     67 C         -62.9357  -41.7927  -24.5790 C.3     1  UNL1        0.0931
     68 C         -64.0448  -42.3071  -23.6532 C.3     1  UNL1        0.1450
     69 O         -63.4843  -42.6711  -22.4191 O.3     1  UNL1       -0.3817
     70 C         -65.1305  -41.2289  -23.4695 C.3     1  UNL1        0.1715
     71 C         -65.5926  -40.7741  -24.8691 C.3     1  UNL1        0.1473
     72 C         -66.7007  -39.7255  -24.7781 C.3     1  UNL1        0.0348
     73 O         -64.5103  -40.2304  -25.6101 O.3     1  UNL1       -0.3304
     74 H         -64.1564  -43.2347  -21.9546 H       1  UNL1        0.2104
     75 O         -64.6031  -40.1165  -22.7565 O.3     1  UNL1       -0.3279
     76 C         -64.8898  -40.1858  -21.3689 C.3     1  UNL1        0.2376
     77 C         -64.3484  -38.9228  -20.6618 C.3     1  UNL1        0.0907
     78 C         -64.0087  -39.1787  -19.1688 C.3     1  UNL1        0.1201
     79 C         -64.2483  -37.8835  -18.3661 C.3     1  UNL1        0.0321
     80 O         -62.6468  -39.5373  -19.0844 O.3     1  UNL1       -0.3841
     81 C         -64.8972  -40.3371  -18.6421 C.3     1  UNL1        0.1620
     82 O         -64.6096  -40.6256  -17.2951 O.3     1  UNL1       -0.3796
     83 C         -64.6536  -41.6110  -19.5033 C.3     1  UNL1        0.1468
     84 C         -65.8595  -42.5564  -19.4792 C.3     1  UNL1        0.0348
     85 O         -64.2594  -41.3403  -20.8467 O.3     1  UNL1       -0.3304
     86 H         -62.4161  -39.6601  -18.1266 H       1  UNL1        0.2103
     87 H         -65.2115  -40.0659  -16.7386 H       1  UNL1        0.2105
@<TRIPOS>BOND
     1    22    23    1
     2    23    21    1
     3    21    24    1
     4    24    25    2
     5    24    26    1
     6    26    27    1
     7    26    29    1
     8    29    30    1
     9    29    31    1
    10    21     1    1
    11     1     2    1
    12     2     3    1
    13     3     4   ar
    14     4     5   ar
    15     5     6   ar
    16     6     7   ar
    17     7    33    1
    18    33    34    1
    19    34    35    1
    20    35    36    1
    21    36    43    1
    22    43    44    1
    23    44    45    1
    24    45    46    1
    25    46    47    1
    26    46    48    1
    27    48    49    1
    28    48    50    1
    29    50    51    1
    30    50    52    1
    31    36    37    1
    32    37    38    1
    33    37    39    1
    34    39    40    1
    35    39    41    1
    36     7     8   ar
    37     8     9    1
    38     8    10   ar
    39    10    11    1
    40    10    12   ar
    41    12    13   ar
    42    13    14    1
    43    13    15   ar
    44    15    16    1
    45    16    17    2
    46    16    18    1
    47    18    55    1
    48    55    56    1
    49    56    57    1
    50    57    58    1
    51    58    65    1
    52    65    66    1
    53    66    67    1
    54    67    68    1
    55    68    69    1
    56    68    70    1
    57    70    75    1
    58    75    76    1
    59    76    77    1
    60    77    78    1
    61    78    79    1
    62    78    80    1
    63    78    81    1
    64    81    82    1
    65    81    83    1
    66    83    84    1
    67    83    85    1
    68    70    71    1
    69    71    72    1
    70    71    73    1
    71    58    59    1
    72    59    60    1
    73    59    61    1
    74    61    62    1
    75    61    63    1
    76    18     1    1
    77    63    56    1
    78    15     3   ar
    79    73    66    1
    80    12     5   ar
    81    85    76    1
    82    41    34    1
    83    52    44    1
    84    27    28    1
    85    31    32    1
    86    47    53    1
    87    49    54    1
    88    38    42    1
    89    11    19    1
    90    14    20    1
    91    69    74    1
    92    80    86    1
    93    82    87    1
    94    60    64    1
@<TRIPOS>MOLECULE
*****
 87 94 0 0 0
SMALL
GASTEIGER

@<TRIPOS>ATOM
      1 C         -64.0277  -43.4275  -27.8446 C.3     1  UNL1        0.0737
      2 C         -63.3871  -42.1191  -27.3353 C.3     1  UNL1        0.0323
      3 C         -62.7804  -42.3263  -25.9737 C.ar    1  UNL1       -0.0162
      4 C         -62.8250  -41.2983  -25.0307 C.ar    1  UNL1       -0.0038
      5 C         -62.2613  -41.4660  -23.7614 C.ar    1  UNL1        0.0085
      6 C         -62.3585  -40.4265  -22.8312 C.ar    1  UNL1        0.0370
      7 C         -61.8310  -40.5618  -21.5404 C.ar    1  UNL1        0.1402
      8 C         -61.2408  -41.7819  -21.1576 C.ar    1  UNL1        0.0459
      9 C         -60.7394  -41.9614  -19.7439 C.3     1  UNL1        0.0374
     10 C         -61.1901  -42.8622  -22.0753 C.ar    1  UNL1        0.1354
     11 O         -60.7802  -44.1277  -21.6435 O.3     1  UNL1       -0.5056
     12 C         -61.6143  -42.6789  -23.4194 C.ar    1  UNL1        0.0673
     13 C         -61.4607  -43.6763  -24.4285 C.ar    1  UNL1        0.1389
     14 O         -60.6680  -44.8110  -24.2315 O.3     1  UNL1       -0.5053
     15 C         -62.0870  -43.5123  -25.6882 C.ar    1  UNL1        0.0669
     16 C         -62.0127  -44.5550  -26.7483 C.2     1  UNL1        0.2026
     17 O         -61.1226  -45.4467  -26.7023 O.2     1  UNL1       -0.2887
     18 C         -62.9792  -44.5749  -27.9116 C.3     1  UNL1        0.1819
     19 H         -60.5258  -44.3466  -20.6894 H       1  UNL1        0.2922
     20 H         -59.8589  -44.8256  -23.6259 H       1  UNL1        0.2922
     21 C         -64.7281  -43.2380  -29.2211 C.3     1  UNL1        0.1777
     22 C         -66.7454  -44.2441  -29.8092 C.3     1  UNL1        0.1746
     23 O         -65.3640  -44.4493  -29.6025 O.3     1  UNL1       -0.3460
     24 C         -63.7342  -42.8116  -30.2926 C.2     1  UNL1        0.2064
     25 O         -63.2758  -41.6785  -30.2542 O.2     1  UNL1       -0.2909
     26 C         -63.2518  -43.7449  -31.3921 C.3     1  UNL1        0.1970
     27 O         -64.3165  -44.3201  -32.1107 O.3     1  UNL1       -0.3752
     28 H         -64.7500  -43.6009  -32.6372 H       1  UNL1        0.2110
     29 C         -62.2499  -43.0310  -32.3314 C.3     1  UNL1        0.1445
     30 C         -60.8902  -43.7378  -32.3370 C.3     1  UNL1        0.0348
     31 O         -62.7645  -42.9791  -33.6370 O.3     1  UNL1       -0.3815
     32 H         -62.2643  -42.2682  -34.1166 H       1  UNL1        0.2105
     33 O         -61.8902  -39.5078  -20.6093 O.3     1  UNL1       -0.4526
     34 C         -62.6816  -38.3232  -20.7292 C.3     1  UNL1        0.2901
     35 C         -64.1491  -38.7213  -21.0534 C.3     1  UNL1        0.1085
     36 C         -64.9888  -38.7442  -19.7690 C.3     1  UNL1        0.1531
     37 C         -64.9613  -37.3347  -19.1285 C.3     1  UNL1        0.1648
     38 O         -65.9852  -36.5370  -19.6674 O.3     1  UNL1       -0.3795
     39 C         -63.5945  -36.6377  -19.3797 C.3     1  UNL1        0.1480
     40 C         -63.2448  -35.6859  -18.2362 C.3     1  UNL1        0.0349
     41 O         -62.5653  -37.6031  -19.5067 O.3     1  UNL1       -0.3205
     42 H         -66.8328  -36.8261  -19.2384 H       1  UNL1        0.2105
     43 O         -64.4190  -39.6641  -18.8455 O.3     1  UNL1       -0.3301
     44 C         -64.9231  -40.9748  -19.0114 C.3     1  UNL1        0.2376
     45 C         -65.5157  -41.4350  -17.6653 C.3     1  UNL1        0.0931
     46 C         -65.5652  -42.9731  -17.5471 C.3     1  UNL1        0.1446
     47 O         -66.7031  -43.3699  -16.8269 O.3     1  UNL1       -0.3817
     48 C         -65.5870  -43.6169  -18.9426 C.3     1  UNL1        0.1644
     49 O         -65.6293  -45.0198  -18.8550 O.3     1  UNL1       -0.3795
     50 C         -64.3505  -43.1395  -19.7648 C.3     1  UNL1        0.1469
     51 C         -64.6121  -43.1994  -21.2725 C.3     1  UNL1        0.0348
     52 O         -63.8740  -41.8467  -19.3993 O.3     1  UNL1       -0.3304
     53 H         -66.5348  -43.1336  -15.8773 H       1  UNL1        0.2104
     54 H         -64.8408  -45.3150  -18.3285 H       1  UNL1        0.2105
     55 O         -63.6716  -45.8113  -27.8653 O.3     1  UNL1       -0.3249
     56 C         -63.4088  -46.6344  -28.9874 C.3     1  UNL1        0.2380
     57 C         -62.6035  -47.8552  -28.4806 C.3     1  UNL1        0.0935
     58 C         -63.5595  -48.9327  -27.9623 C.3     1  UNL1        0.1519
     59 C         -64.5178  -49.3664  -29.1003 C.3     1  UNL1        0.1648
     60 O         -64.0235  -50.5404  -29.6954 O.3     1  UNL1       -0.3795
     61 C         -64.6557  -48.2564  -30.1822 C.3     1  UNL1        0.1469
     62 C         -65.9501  -48.4228  -30.9787 C.3     1  UNL1        0.0348
     63 O         -64.6594  -46.9760  -29.5809 O.3     1  UNL1       -0.3304
     64 H         -64.7998  -51.0180  -30.0883 H       1  UNL1        0.2105
     65 O         -64.3158  -48.3905  -26.8846 O.3     1  UNL1       -0.3302
     66 C         -64.1063  -49.1094  -25.6805 C.3     1  UNL1        0.2376
     67 C         -64.4162  -48.2152  -24.4665 C.3     1  UNL1        0.0931
     68 C         -63.3469  -47.1316  -24.2815 C.3     1  UNL1        0.1450
     69 O         -63.5805  -46.4537  -23.0751 O.3     1  UNL1       -0.3817
     70 C         -61.9402  -47.7606  -24.2975 C.3     1  UNL1        0.1715
     71 C         -61.8111  -48.6077  -25.5801 C.3     1  UNL1        0.1473
     72 C         -60.4252  -49.2417  -25.6937 C.3     1  UNL1        0.0348
     73 O         -62.7875  -49.6381  -25.6093 O.3     1  UNL1       -0.3304
     74 H         -63.0570  -45.6114  -23.1140 H       1  UNL1        0.2104
     75 O         -61.7602  -48.5917  -23.1570 O.3     1  UNL1       -0.3279
     76 C         -61.5243  -49.9446  -23.5127 C.3     1  UNL1        0.2376
     77 C         -62.7190  -50.8165  -23.0647 C.3     1  UNL1        0.0907
     78 C         -62.3094  -52.2891  -22.7929 C.3     1  UNL1        0.1201
     79 C         -63.4960  -53.2149  -23.1306 C.3     1  UNL1        0.0321
     80 O         -61.9950  -52.4107  -21.4230 O.3     1  UNL1       -0.3841
     81 C         -61.0666  -52.6331  -23.6565 C.3     1  UNL1        0.1620
     82 O         -60.6392  -53.9542  -23.4276 O.3     1  UNL1       -0.3796
     83 C         -59.9079  -51.6517  -23.3127 C.3     1  UNL1        0.1468
     84 C         -58.9212  -51.5026  -24.4758 C.3     1  UNL1        0.0348
     85 O         -60.3428  -50.3711  -22.8608 O.3     1  UNL1       -0.3304
     86 H         -61.7738  -53.3608  -21.2377 H       1  UNL1        0.2103
     87 H         -61.1096  -54.5339  -24.0817 H       1  UNL1        0.2105
@<TRIPOS>BOND
     1    22    23    1
     2    23    21    1
     3    21    24    1
     4    24    25    2
     5    24    26    1
     6    26    27    1
     7    26    29    1
     8    29    30    1
     9    29    31    1
    10    21     1    1
    11     1     2    1
    12     2     3    1
    13     3     4   ar
    14     4     5   ar
    15     5     6   ar
    16     6     7   ar
    17     7    33    1
    18    33    34    1
    19    34    35    1
    20    35    36    1
    21    36    43    1
    22    43    44    1
    23    44    45    1
    24    45    46    1
    25    46    47    1
    26    46    48    1
    27    48    49    1
    28    48    50    1
    29    50    51    1
    30    50    52    1
    31    36    37    1
    32    37    38    1
    33    37    39    1
    34    39    40    1
    35    39    41    1
    36     7     8   ar
    37     8     9    1
    38     8    10   ar
    39    10    11    1
    40    10    12   ar
    41    12    13   ar
    42    13    14    1
    43    13    15   ar
    44    15    16    1
    45    16    17    2
    46    16    18    1
    47    18    55    1
    48    55    56    1
    49    56    57    1
    50    57    58    1
    51    58    65    1
    52    65    66    1
    53    66    67    1
    54    67    68    1
    55    68    69    1
    56    68    70    1
    57    70    75    1
    58    75    76    1
    59    76    77    1
    60    77    78    1
    61    78    79    1
    62    78    80    1
    63    78    81    1
    64    81    82    1
    65    81    83    1
    66    83    84    1
    67    83    85    1
    68    70    71    1
    69    71    72    1
    70    71    73    1
    71    58    59    1
    72    59    60    1
    73    59    61    1
    74    61    62    1
    75    61    63    1
    76    18     1    1
    77    63    56    1
    78    15     3   ar
    79    73    66    1
    80    12     5   ar
    81    85    76    1
    82    41    34    1
    83    52    44    1
    84    27    28    1
    85    31    32    1
    86    47    53    1
    87    49    54    1
    88    38    42    1
    89    11    19    1
    90    14    20    1
    91    69    74    1
    92    80    86    1
    93    82    87    1
    94    60    64    1
@<TRIPOS>MOLECULE
*****
 87 94 0 0 0
SMALL
GASTEIGER

@<TRIPOS>ATOM
      1 C         -63.8763  -42.2002  -29.0311 C.3     1  UNL1        0.0737
      2 C         -64.2906  -41.5314  -27.7035 C.3     1  UNL1        0.0323
      3 C         -63.2595  -41.7929  -26.6389 C.ar    1  UNL1       -0.0162
      4 C         -63.6611  -41.9820  -25.3157 C.ar    1  UNL1       -0.0038
      5 C         -62.7195  -42.2194  -24.3086 C.ar    1  UNL1        0.0085
      6 C         -63.1633  -42.4408  -23.0012 C.ar    1  UNL1        0.0370
      7 C         -62.2565  -42.7080  -21.9672 C.ar    1  UNL1        0.1402
      8 C         -60.8823  -42.8069  -22.2592 C.ar    1  UNL1        0.0459
      9 C         -59.9073  -43.1709  -21.1642 C.3     1  UNL1        0.0374
     10 C         -60.4285  -42.6420  -23.5929 C.ar    1  UNL1        0.1354
     11 O         -59.0982  -42.9251  -23.9189 O.3     1  UNL1       -0.5056
     12 C         -61.3366  -42.2498  -24.6136 C.ar    1  UNL1        0.0673
     13 C         -60.9255  -41.9301  -25.9423 C.ar    1  UNL1        0.1389
     14 O         -59.5802  -41.7457  -26.2755 O.3     1  UNL1       -0.5053
     15 C         -61.8940  -41.7492  -26.9596 C.ar    1  UNL1        0.0669
     16 C         -61.5130  -41.4818  -28.3737 C.2     1  UNL1        0.2026
     17 O         -60.3557  -41.0670  -28.6532 O.2     1  UNL1       -0.2887
     18 C         -62.4904  -41.6809  -29.5108 C.3     1  UNL1        0.1819
     19 H         -58.4134  -43.2691  -23.2588 H       1  UNL1        0.2922
     20 H         -58.8878  -41.4035  -25.6235 H       1  UNL1        0.2922
     21 C         -64.9510  -42.0122  -30.1406 C.3     1  UNL1        0.1777
     22 C         -65.2913  -39.7541  -30.6014 C.3     1  UNL1        0.1746
     23 O         -65.7369  -40.8648  -29.8527 O.3     1  UNL1       -0.3460
     24 C         -65.8442  -43.2395  -30.2580 C.2     1  UNL1        0.2064
     25 O         -66.9323  -43.1266  -30.8047 O.2     1  UNL1       -0.2909
     26 C         -65.4297  -44.6152  -29.7600 C.3     1  UNL1        0.1970
     27 O         -66.4915  -45.3031  -29.1434 O.3     1  UNL1       -0.3752
     28 H         -67.1498  -45.5369  -29.8466 H       1  UNL1        0.2110
     29 C         -64.7914  -45.4515  -30.8953 C.3     1  UNL1        0.1445
     30 C         -64.7979  -46.9464  -30.5579 C.3     1  UNL1        0.0348
     31 O         -65.4777  -45.2328  -32.1009 O.3     1  UNL1       -0.3815
     32 H         -64.8734  -45.5216  -32.8337 H       1  UNL1        0.2105
     33 O         -62.6900  -42.8947  -20.6411 O.3     1  UNL1       -0.4526
     34 C         -64.0477  -42.9028  -20.1934 C.3     1  UNL1        0.2901
     35 C         -64.1830  -41.9677  -18.9587 C.3     1  UNL1        0.1085
     36 C         -64.6904  -40.5858  -19.3927 C.3     1  UNL1        0.1531
     37 C         -66.0710  -40.7515  -20.0738 C.3     1  UNL1        0.1648
     38 O         -67.0942  -40.7167  -19.1108 O.3     1  UNL1       -0.3795
     39 C         -66.1510  -42.0988  -20.8455 C.3     1  UNL1        0.1480
     40 C         -67.0766  -41.9843  -22.0563 C.3     1  UNL1        0.0349
     41 O         -64.8629  -42.4915  -21.2856 O.3     1  UNL1       -0.3205
     42 H         -67.2202  -39.7648  -18.8575 H       1  UNL1        0.2105
     43 O         -63.7902  -40.0259  -20.3414 O.3     1  UNL1       -0.3301
     44 C         -63.7443  -38.6143  -20.2715 C.3     1  UNL1        0.2376
     45 C         -62.4670  -38.1395  -20.9911 C.3     1  UNL1        0.0931
     46 C         -62.0112  -36.7462  -20.5081 C.3     1  UNL1        0.1446
     47 O         -61.4498  -36.0217  -21.5715 O.3     1  UNL1       -0.3817
     48 C         -63.2000  -35.9670  -19.9232 C.3     1  UNL1        0.1644
     49 O         -62.8029  -34.6946  -19.4747 O.3     1  UNL1       -0.3795
     50 C         -63.8584  -36.7907  -18.7740 C.3     1  UNL1        0.1469
     51 C         -65.3337  -36.4259  -18.5854 C.3     1  UNL1        0.0348
     52 O         -63.7148  -38.2019  -18.9150 O.3     1  UNL1       -0.3304
     53 H         -60.5655  -36.4322  -21.7592 H       1  UNL1        0.2104
     54 H         -62.0824  -34.8206  -18.8031 H       1  UNL1        0.2105
     55 O         -61.9324  -42.6486  -30.3839 O.3     1  UNL1       -0.3249
     56 C         -61.7898  -42.1781  -31.7120 C.3     1  UNL1        0.2380
     57 C         -60.2986  -42.3361  -32.0956 C.3     1  UNL1        0.0935
     58 C         -60.0395  -43.7542  -32.6109 C.3     1  UNL1        0.1519
     59 C         -60.9354  -44.0290  -33.8452 C.3     1  UNL1        0.1648
     60 O         -60.1871  -43.8085  -35.0148 O.3     1  UNL1       -0.3795
     61 C         -62.1909  -43.1097  -33.8531 C.3     1  UNL1        0.1469
     62 C         -63.3078  -43.7117  -34.7063 C.3     1  UNL1        0.0348
     63 O         -62.6790  -42.9261  -32.5382 O.3     1  UNL1       -0.3304
     64 H         -60.5919  -44.3653  -35.7300 H       1  UNL1        0.2105
     65 O         -60.3576  -44.6798  -31.5769 O.3     1  UNL1       -0.3302
     66 C         -59.6623  -44.3872  -30.3762 C.3     1  UNL1        0.2376
     67 C         -58.6277  -45.4874  -30.0790 C.3     1  UNL1        0.0931
     68 C         -59.3067  -46.7921  -29.6447 C.3     1  UNL1        0.1450
     69 O         -58.3267  -47.7054  -29.2263 O.3     1  UNL1       -0.3817
     70 C         -60.3216  -46.5171  -28.5181 C.3     1  UNL1        0.1715
     71 C         -61.2733  -45.4012  -28.9956 C.3     1  UNL1        0.1473
     72 C         -62.3401  -45.0900  -27.9463 C.3     1  UNL1        0.0348
     73 O         -60.5563  -44.2101  -29.2837 O.3     1  UNL1       -0.3304
     74 H         -58.7567  -48.5999  -29.2113 H       1  UNL1        0.2104
     75 O         -59.6456  -46.0955  -27.3395 O.3     1  UNL1       -0.3279
     76 C         -60.0374  -46.8454  -26.2008 C.3     1  UNL1        0.2376
     77 C         -61.3864  -47.5465  -26.4781 C.3     1  UNL1        0.0907
     78 C         -62.1964  -47.8085  -25.1799 C.3     1  UNL1        0.1201
     79 C         -63.0290  -49.0952  -25.3540 C.3     1  UNL1        0.0321
     80 O         -63.0625  -46.7138  -24.9753 O.3     1  UNL1       -0.3841
     81 C         -61.2099  -47.9362  -23.9886 C.3     1  UNL1        0.1620
     82 O         -61.8982  -48.1506  -22.7800 O.3     1  UNL1       -0.3796
     83 C         -60.3638  -46.6343  -23.8735 C.3     1  UNL1        0.1468
     84 C         -59.0176  -46.8865  -23.1859 C.3     1  UNL1        0.0348
     85 O         -60.1713  -45.9525  -25.1110 O.3     1  UNL1       -0.3304
     86 H         -63.6120  -46.8982  -24.1692 H       1  UNL1        0.2103
     87 H         -61.9867  -49.1320  -22.6611 H       1  UNL1        0.2105
@<TRIPOS>BOND
     1    22    23    1
     2    23    21    1
     3    21    24    1
     4    24    25    2
     5    24    26    1
     6    26    27    1
     7    26    29    1
     8    29    30    1
     9    29    31    1
    10    21     1    1
    11     1     2    1
    12     2     3    1
    13     3     4   ar
    14     4     5   ar
    15     5     6   ar
    16     6     7   ar
    17     7    33    1
    18    33    34    1
    19    34    35    1
    20    35    36    1
    21    36    43    1
    22    43    44    1
    23    44    45    1
    24    45    46    1
    25    46    47    1
    26    46    48    1
    27    48    49    1
    28    48    50    1
    29    50    51    1
    30    50    52    1
    31    36    37    1
    32    37    38    1
    33    37    39    1
    34    39    40    1
    35    39    41    1
    36     7     8   ar
    37     8     9    1
    38     8    10   ar
    39    10    11    1
    40    10    12   ar
    41    12    13   ar
    42    13    14    1
    43    13    15   ar
    44    15    16    1
    45    16    17    2
    46    16    18    1
    47    18    55    1
    48    55    56    1
    49    56    57    1
    50    57    58    1
    51    58    65    1
    52    65    66    1
    53    66    67    1
    54    67    68    1
    55    68    69    1
    56    68    70    1
    57    70    75    1
    58    75    76    1
    59    76    77    1
    60    77    78    1
    61    78    79    1
    62    78    80    1
    63    78    81    1
    64    81    82    1
    65    81    83    1
    66    83    84    1
    67    83    85    1
    68    70    71    1
    69    71    72    1
    70    71    73    1
    71    58    59    1
    72    59    60    1
    73    59    61    1
    74    61    62    1
    75    61    63    1
    76    18     1    1
    77    63    56    1
    78    15     3   ar
    79    73    66    1
    80    12     5   ar
    81    85    76    1
    82    41    34    1
    83    52    44    1
    84    27    28    1
    85    31    32    1
    86    47    53    1
    87    49    54    1
    88    38    42    1
    89    11    19    1
    90    14    20    1
    91    69    74    1
    92    80    86    1
    93    82    87    1
    94    60    64    1
