@<TRIPOS>MOLECULE
*****
 45 50 0 0 0
SMALL
GASTEIGER

@<TRIPOS>ATOM
      1 C          60.5761   89.9302    9.4595 C.ar    1  UNL1        0.0702
      2 C          61.1581   88.6773    9.7011 C.ar    1  UNL1        0.0191
      3 C          61.0507   88.0850   10.9606 C.ar    1  UNL1        0.0356
      4 C          60.3429   88.7430   11.9837 C.ar    1  UNL1        0.1318
      5 N          59.7670   89.9480   11.7111 N.ar    1  UNL1       -0.2279
      6 C          59.8588   90.5428   10.4927 C.ar    1  UNL1        0.1149
      7 N          60.2011   88.1591   13.3006 N.pl3   1  UNL1       -0.2932
      8 C          60.7497   88.8387   14.4884 C.3     1  UNL1        0.0923
      9 C          60.7920   87.9101   15.7112 C.3     1  UNL1        0.0252
     10 C          61.2958   86.5169   15.2966 C.3     1  UNL1        0.0472
     11 C          60.3685   85.8670   14.2340 C.3     1  UNL1        0.0252
     12 C          59.4916   86.8824   13.4820 C.3     1  UNL1        0.0923
     13 C          61.4574   85.6103   16.5315 C.3     1  UNL1        0.2054
     14 O          62.2794   84.4804   16.2336 O.3     1  UNL1       -0.4750
     15 C          63.4118   84.4833   15.4007 C.ar    1  UNL1        0.1440
     16 C          64.5004   85.3473   15.6224 C.ar    1  UNL1        0.0373
     17 C          65.6005   85.3281   14.7678 C.ar    1  UNL1        0.0033
     18 C          65.6376   84.4444   13.6910 C.ar    1  UNL1        0.0071
     19 C          64.5724   83.5611   13.4539 C.ar    1  UNL1        0.0837
     20 C          63.4490   83.5868   14.3158 C.ar    1  UNL1        0.0702
     21 I          61.7267   82.3777   13.9708 I       1  UNL1       -0.0392
     22 C          64.6711   82.6212   12.3147 C.2     1  UNL1        0.3385
     23 O          64.3856   81.4048   12.4682 O.2     1  UNL1       -0.2451
     24 O          65.1164   83.0549   11.0676 O.3     1  UNL1       -0.4771
     25 H          65.3189   84.0301   10.8839 H       1  UNL1        0.2954
     26 C          59.8850   90.1309    7.0233 C.2     1  UNL1        0.2839
     27 O          59.0520   89.1908    7.1229 O.2     1  UNL1       -0.2665
     28 N          60.6398   90.5612    8.1698 N.am    1  UNL1       -0.2766
     29 H          61.3194   91.3447    8.0587 H       1  UNL1        0.1553
     30 C          57.5646   91.3734    5.1376 C.3     1  UNL1        0.0345
     31 C          59.0411   91.3086    4.8886 C.ar    1  UNL1        0.0202
     32 C          60.0451   90.7878    5.7144 C.ar    1  UNL1        0.1946
     33 O          61.2298   90.9810    5.1618 O.2     1  UNL1       -0.4492
     34 C          61.0444   91.5772    4.0095 C.ar    1  UNL1        0.1452
     35 C          62.0145   91.9651    3.0919 C.ar    1  UNL1        0.0375
     36 C          61.5900   92.5983    1.9106 C.ar    1  UNL1        0.0031
     37 C          60.2097   92.8336    1.6654 C.ar    1  UNL1        0.0002
     38 C          59.2549   92.4233    2.6265 C.ar    1  UNL1        0.0028
     39 C          59.7125   91.7965    3.7857 C.ar    1  UNL1        0.0337
     40 C          59.7727   93.5032    0.4140 C.ar    1  UNL1        0.0000
     41 C          60.6890   94.2385   -0.3620 C.ar    1  UNL1        0.0000
     42 C          60.2742   94.8689   -1.5393 C.ar    1  UNL1        0.0000
     43 C          58.9445   94.7726   -1.9551 C.ar    1  UNL1        0.0000
     44 C          58.0260   94.0461   -1.1942 C.ar    1  UNL1        0.0000
     45 C          58.4348   93.4144   -0.0156 C.ar    1  UNL1        0.0000
@<TRIPOS>BOND
     1    30    31    1
     2    31    32   ar
     3    32    26    1
     4    26    27    2
     5    26    28   am
     6    28     1    1
     7     1     2   ar
     8     2     3   ar
     9     3     4   ar
    10     4     7    1
    11     7     8    1
    12     8     9    1
    13     9    10    1
    14    10    13    1
    15    13    14    1
    16    14    15    1
    17    15    16   ar
    18    16    17   ar
    19    17    18   ar
    20    18    19   ar
    21    19    22    1
    22    22    23    2
    23    22    24    1
    24    19    20   ar
    25    20    21    1
    26    10    11    1
    27    11    12    1
    28     4     5   ar
    29     5     6   ar
    30    32    33   ar
    31    33    34   ar
    32    34    35   ar
    33    35    36   ar
    34    36    37   ar
    35    37    40    1
    36    40    41   ar
    37    41    42   ar
    38    42    43   ar
    39    43    44   ar
    40    44    45   ar
    41    37    38   ar
    42    38    39   ar
    43    39    31   ar
    44     6     1   ar
    45    39    34   ar
    46    12     7    1
    47    45    40   ar
    48    20    15   ar
    49    28    29    1
    50    24    25    1
@<TRIPOS>MOLECULE
*****
 45 50 0 0 0
SMALL
GASTEIGER

@<TRIPOS>ATOM
      1 C          59.7228   88.6418    7.5886 C.ar    1  UNL1        0.0702
      2 C          60.0700   88.8003    8.9382 C.ar    1  UNL1        0.0191
      3 C          59.5994   87.8984    9.8941 C.ar    1  UNL1        0.0356
      4 C          58.7871   86.8200    9.4968 C.ar    1  UNL1        0.1318
      5 N          58.4875   86.6784    8.1746 N.ar    1  UNL1       -0.2279
      6 C          58.9345   87.5439    7.2272 C.ar    1  UNL1        0.1149
      7 N          58.2858   85.8582   10.4554 N.pl3   1  UNL1       -0.2932
      8 C          58.5217   86.0413   11.8992 C.3     1  UNL1        0.0923
      9 C          58.2125   84.7654   12.6965 C.3     1  UNL1        0.0252
     10 C          58.7661   83.5354   11.9565 C.3     1  UNL1        0.0472
     11 C          58.1329   83.3841   10.5466 C.3     1  UNL1        0.0252
     12 C          57.5160   84.6862   10.0085 C.3     1  UNL1        0.0923
     13 C          58.5693   82.2621   12.8008 C.3     1  UNL1        0.2054
     14 O          59.8163   81.6057   13.0363 O.3     1  UNL1       -0.4750
     15 C          60.7866   81.3089   12.0636 C.ar    1  UNL1        0.1440
     16 C          60.6134   80.2729   11.1269 C.ar    1  UNL1        0.0373
     17 C          61.6035   80.0020   10.1849 C.ar    1  UNL1        0.0033
     18 C          62.7707   80.7626   10.1545 C.ar    1  UNL1        0.0071
     19 C          62.9644   81.8116   11.0673 C.ar    1  UNL1        0.0837
     20 C          61.9633   82.0813   12.0321 C.ar    1  UNL1        0.0702
     21 I          62.2135   83.5667   13.5415 I       1  UNL1       -0.0392
     22 C          64.2077   82.6096   10.9766 C.2     1  UNL1        0.3385
     23 O          64.3273   83.5014   10.0962 O.2     1  UNL1       -0.2451
     24 O          65.2780   82.3640   11.8343 O.3     1  UNL1       -0.4771
     25 H          65.2151   81.6860   12.5841 H       1  UNL1        0.2954
     26 C          59.3806   90.4599    5.8478 C.2     1  UNL1        0.2839
     27 O          58.1610   90.5870    6.1373 O.2     1  UNL1       -0.2665
     28 N          60.2088   89.5314    6.5699 N.am    1  UNL1       -0.2766
     29 H          61.2161   89.4503    6.3111 H       1  UNL1        0.1553
     30 C          62.0931   89.9640    4.1506 C.3     1  UNL1        0.0345
     31 C          61.1183   91.0980    4.0507 C.ar    1  UNL1        0.0202
     32 C          59.9355   91.3005    4.7727 C.ar    1  UNL1        0.1946
     33 O          59.3237   92.3894    4.3411 O.2     1  UNL1       -0.4492
     34 C          60.0607   92.9171    3.3945 C.ar    1  UNL1        0.1452
     35 C          59.8015   94.0725    2.6655 C.ar    1  UNL1        0.0375
     36 C          60.7338   94.4580    1.6862 C.ar    1  UNL1        0.0031
     37 C          61.9047   93.6872    1.4511 C.ar    1  UNL1        0.0002
     38 C          62.1296   92.5170    2.2153 C.ar    1  UNL1        0.0028
     39 C          61.1842   92.1663    3.1792 C.ar    1  UNL1        0.0337
     40 C          62.8826   94.1040    0.4142 C.ar    1  UNL1        0.0000
     41 C          62.4902   94.2250   -0.9325 C.ar    1  UNL1        0.0000
     42 C          63.4136   94.6167   -1.9068 C.ar    1  UNL1        0.0000
     43 C          64.7353   94.8921   -1.5497 C.ar    1  UNL1        0.0000
     44 C          65.1369   94.7759   -0.2171 C.ar    1  UNL1        0.0000
     45 C          64.2182   94.3838    0.7613 C.ar    1  UNL1        0.0000
@<TRIPOS>BOND
     1    30    31    1
     2    31    32   ar
     3    32    26    1
     4    26    27    2
     5    26    28   am
     6    28     1    1
     7     1     2   ar
     8     2     3   ar
     9     3     4   ar
    10     4     7    1
    11     7     8    1
    12     8     9    1
    13     9    10    1
    14    10    13    1
    15    13    14    1
    16    14    15    1
    17    15    16   ar
    18    16    17   ar
    19    17    18   ar
    20    18    19   ar
    21    19    22    1
    22    22    23    2
    23    22    24    1
    24    19    20   ar
    25    20    21    1
    26    10    11    1
    27    11    12    1
    28     4     5   ar
    29     5     6   ar
    30    32    33   ar
    31    33    34   ar
    32    34    35   ar
    33    35    36   ar
    34    36    37   ar
    35    37    40    1
    36    40    41   ar
    37    41    42   ar
    38    42    43   ar
    39    43    44   ar
    40    44    45   ar
    41    37    38   ar
    42    38    39   ar
    43    39    31   ar
    44     6     1   ar
    45    39    34   ar
    46    12     7    1
    47    45    40   ar
    48    20    15   ar
    49    28    29    1
    50    24    25    1
