@<TRIPOS>MOLECULE
*****
 41 45 0 0 0
SMALL
GASTEIGER

@<TRIPOS>ATOM
      1 C         -26.3148   50.5071  -10.0283 C.ar    1  UNL1        0.1652
      2 C         -25.6795   50.8236   -8.7946 C.ar    1  UNL1        0.1260
      3 C         -26.4610   50.8997   -7.6093 C.ar    1  UNL1        0.1812
      4 C         -27.8603   50.7341   -7.6572 C.ar    1  UNL1        0.1899
      5 C         -28.4499   50.4619   -8.8930 C.ar    1  UNL1        0.1203
      6 C         -27.7008   50.3527  -10.0293 C.ar    1  UNL1        0.1370
      7 N         -28.4803   50.0442  -11.0814 N.ar    1  UNL1       -0.2103
      8 C         -29.7231   49.9887  -10.5356 C.ar    1  UNL1        0.2019
      9 N         -29.7437   50.2514   -9.2011 N.ar    1  UNL1       -0.2949
     10 C         -30.8946   50.2538   -8.2982 C.3     1  UNL1        0.1333
     11 O         -28.6054   50.8489   -6.4799 O.3     1  UNL1       -0.4668
     12 C         -28.0335   51.4102   -5.2972 C.3     1  UNL1        0.2527
     13 C         -26.5783   50.9531   -5.1449 C.3     1  UNL1        0.2526
     14 O         -25.8661   51.1572   -6.3673 O.3     1  UNL1       -0.4681
     15 C         -24.2279   51.0951   -8.7259 C.2     1  UNL1        0.2556
     16 O         -23.6072   50.8502   -7.6559 O.2     1  UNL1       -0.2696
     17 N         -23.5296   51.6180   -9.8695 N.am    1  UNL1       -0.2802
     18 H         -24.0519   51.7189  -10.7686 H       1  UNL1        0.1552
     19 C         -22.1208   51.8998   -9.8875 C.ar    1  UNL1        0.0506
     20 C         -21.4021   51.7189  -11.0760 C.ar    1  UNL1        0.0170
     21 C         -20.0386   52.0112  -11.1280 C.ar    1  UNL1        0.0309
     22 C         -19.3788   52.4974   -9.9966 C.ar    1  UNL1        0.1441
     23 F         -18.0555   52.7883  -10.0788 F       1  UNL1       -0.2042
     24 C         -20.0833   52.6968   -8.7945 C.ar    1  UNL1        0.1000
     25 C         -21.4624   52.4134   -8.7559 C.ar    1  UNL1        0.0208
     26 C         -19.3683   53.2621   -7.5902 C.3     1  UNL1        0.4207
     27 F         -20.2667   53.4414   -6.5535 F       1  UNL1       -0.1658
     28 F         -18.3836   52.3791   -7.1867 F       1  UNL1       -0.1658
     29 F         -18.7813   54.4841   -7.8709 F       1  UNL1       -0.1658
     30 C         -25.6584   51.2861  -12.2813 C.3     1  UNL1        0.2525
     31 O         -25.6098   50.3343  -11.2240 O.3     1  UNL1       -0.4696
     32 N         -30.8855   49.6255  -11.2955 N.pl3   1  UNL1       -0.2814
     33 H         -31.8245   49.9191  -10.9464 H       1  UNL1        0.1551
     34 C         -30.8368   48.6330  -12.3307 C.ar    1  UNL1        0.0889
     35 C         -30.7773   49.0421  -13.6734 C.ar    1  UNL1        0.1543
     36 F         -30.7833   50.3622  -13.9872 F       1  UNL1       -0.2028
     37 C         -30.7339   48.0930  -14.6987 C.ar    1  UNL1        0.0310
     38 C         -30.7353   46.7309  -14.3931 C.ar    1  UNL1        0.0033
     39 C         -30.7690   46.3129  -13.0609 C.ar    1  UNL1        0.0128
     40 C         -30.8130   47.2546  -12.0256 C.ar    1  UNL1        0.0733
     41 CL        -30.7590   46.6767  -10.3642 Cl      1  UNL1       -0.0809
@<TRIPOS>BOND
     1    30    31    1
     2    31     1    1
     3     1     2   ar
     4     2    15    1
     5    15    16    2
     6    15    17   am
     7    17    19    1
     8    19    20   ar
     9    20    21   ar
    10    21    22   ar
    11    22    23    1
    12    22    24   ar
    13    24    26    1
    14    26    27    1
    15    26    28    1
    16    26    29    1
    17    24    25   ar
    18     2     3   ar
    19     3     4   ar
    20     4     5   ar
    21     5     6   ar
    22     6     7   ar
    23     7     8   ar
    24     8    32    1
    25    32    34    1
    26    34    35   ar
    27    35    36    1
    28    35    37   ar
    29    37    38   ar
    30    38    39   ar
    31    39    40   ar
    32    40    41    1
    33     8     9   ar
    34     9    10    1
    35     4    11    1
    36    11    12    1
    37    12    13    1
    38    13    14    1
    39     6     1   ar
    40    40    34   ar
    41    25    19   ar
    42    14     3    1
    43     9     5   ar
    44    17    18    1
    45    32    33    1
@<TRIPOS>MOLECULE
*****
 41 45 0 0 0
SMALL
GASTEIGER

@<TRIPOS>ATOM
      1 C         -27.0217   50.5654   -7.5219 C.ar    1  UNL1        0.1652
      2 C         -26.9640   51.2221   -8.7834 C.ar    1  UNL1        0.1260
      3 C         -28.1082   51.2093   -9.6272 C.ar    1  UNL1        0.1812
      4 C         -29.2678   50.4977   -9.2576 C.ar    1  UNL1        0.1899
      5 C         -29.2712   49.8354   -8.0286 C.ar    1  UNL1        0.1203
      6 C         -28.1881   49.8731   -7.1980 C.ar    1  UNL1        0.1370
      7 N         -28.4422   49.2030   -6.0595 N.ar    1  UNL1       -0.2103
      8 C         -29.7095   48.7507   -6.2469 C.ar    1  UNL1        0.2019
      9 N         -30.2431   49.1082   -7.4459 N.ar    1  UNL1       -0.2949
     10 C         -31.5802   48.8167   -7.9630 C.3     1  UNL1        0.1333
     11 O         -30.3645   50.4754  -10.1243 O.3     1  UNL1       -0.4668
     12 C         -30.2399   50.9022  -11.4820 C.3     1  UNL1        0.2527
     13 C         -29.3226   52.1272  -11.5696 C.3     1  UNL1        0.2526
     14 O         -28.1092   51.8876  -10.8531 O.3     1  UNL1       -0.4681
     15 C         -25.7316   51.8981   -9.2414 C.2     1  UNL1        0.2556
     16 O         -25.7942   53.0997   -9.6189 O.2     1  UNL1       -0.2696
     17 N         -24.4745   51.1991   -9.2424 N.am    1  UNL1       -0.2802
     18 H         -24.4387   50.2383   -8.8339 H       1  UNL1        0.1552
     19 C         -23.2322   51.7861   -9.6626 C.ar    1  UNL1        0.0506
     20 C         -23.0742   52.1682  -11.0008 C.ar    1  UNL1        0.0170
     21 C         -21.8880   52.7655  -11.4292 C.ar    1  UNL1        0.0309
     22 C         -20.8495   52.9978  -10.5240 C.ar    1  UNL1        0.1441
     23 F         -19.7123   53.5944  -10.9638 F       1  UNL1       -0.2042
     24 C         -20.9903   52.6316   -9.1723 C.ar    1  UNL1        0.1000
     25 C         -22.1969   52.0432   -8.7461 C.ar    1  UNL1        0.0208
     26 C         -19.8770   52.9256   -8.1949 C.3     1  UNL1        0.4207
     27 F         -20.3775   52.9396   -6.9052 F       1  UNL1       -0.1658
     28 F         -18.9102   51.9420   -8.2935 F       1  UNL1       -0.1658
     29 F         -19.2884   54.1536   -8.4445 F       1  UNL1       -0.1658
     30 C         -26.1221   51.1383   -5.2912 C.3     1  UNL1        0.2525
     31 O         -25.9709   50.5977   -6.5993 O.3     1  UNL1       -0.4696
     32 N         -30.4258   48.0192   -5.2408 N.pl3   1  UNL1       -0.2814
     33 H         -31.4528   48.1778   -5.1415 H       1  UNL1        0.1551
     34 C         -29.7511   47.3217   -4.1837 C.ar    1  UNL1        0.0889
     35 C         -29.6131   47.9405   -2.9300 C.ar    1  UNL1        0.1543
     36 F         -30.0979   49.1915   -2.7275 F       1  UNL1       -0.2028
     37 C         -28.9555   47.2820   -1.8870 C.ar    1  UNL1        0.0310
     38 C         -28.4437   45.9978   -2.0814 C.ar    1  UNL1        0.0033
     39 C         -28.5971   45.3632   -3.3161 C.ar    1  UNL1        0.0128
     40 C         -29.2537   46.0132   -4.3682 C.ar    1  UNL1        0.0733
     41 CL        -29.5026   45.1334   -5.8718 Cl      1  UNL1       -0.0809
@<TRIPOS>BOND
     1    30    31    1
     2    31     1    1
     3     1     2   ar
     4     2    15    1
     5    15    16    2
     6    15    17   am
     7    17    19    1
     8    19    20   ar
     9    20    21   ar
    10    21    22   ar
    11    22    23    1
    12    22    24   ar
    13    24    26    1
    14    26    27    1
    15    26    28    1
    16    26    29    1
    17    24    25   ar
    18     2     3   ar
    19     3     4   ar
    20     4     5   ar
    21     5     6   ar
    22     6     7   ar
    23     7     8   ar
    24     8    32    1
    25    32    34    1
    26    34    35   ar
    27    35    36    1
    28    35    37   ar
    29    37    38   ar
    30    38    39   ar
    31    39    40   ar
    32    40    41    1
    33     8     9   ar
    34     9    10    1
    35     4    11    1
    36    11    12    1
    37    12    13    1
    38    13    14    1
    39     6     1   ar
    40    40    34   ar
    41    25    19   ar
    42    14     3    1
    43     9     5   ar
    44    17    18    1
    45    32    33    1
@<TRIPOS>MOLECULE
*****
 41 45 0 0 0
SMALL
GASTEIGER

@<TRIPOS>ATOM
      1 C         -27.0512   50.3936   -7.6419 C.ar    1  UNL1        0.1652
      2 C         -27.0156   51.1224   -8.8639 C.ar    1  UNL1        0.1260
      3 C         -28.1670   51.1386   -9.6979 C.ar    1  UNL1        0.1812
      4 C         -29.3113   50.3871   -9.3607 C.ar    1  UNL1        0.1899
      5 C         -29.2927   49.6555   -8.1719 C.ar    1  UNL1        0.1203
      6 C         -28.2031   49.6639   -7.3491 C.ar    1  UNL1        0.1370
      7 N         -28.4357   48.9254   -6.2491 N.ar    1  UNL1       -0.2103
      8 C         -29.6970   48.4630   -6.4521 C.ar    1  UNL1        0.2019
      9 N         -30.2472   48.8795   -7.6243 N.ar    1  UNL1       -0.2949
     10 C         -31.5837   48.5953   -8.1466 C.3     1  UNL1        0.1333
     11 O         -30.4151   50.3958  -10.2185 O.3     1  UNL1       -0.4668
     12 C         -30.3098   50.9019  -11.5504 C.3     1  UNL1        0.2527
     13 C         -29.4138   52.1454  -11.5746 C.3     1  UNL1        0.2526
     14 O         -28.1902   51.8859  -10.8827 O.3     1  UNL1       -0.4681
     15 C         -25.7989   51.8447   -9.2921 C.2     1  UNL1        0.2556
     16 O         -25.8831   53.0670   -9.5908 O.2     1  UNL1       -0.2696
     17 N         -24.5322   51.1658   -9.3530 N.am    1  UNL1       -0.2802
     18 H         -24.4777   50.1815   -9.0075 H       1  UNL1        0.1552
     19 C         -23.3037   51.7970   -9.7492 C.ar    1  UNL1        0.0506
     20 C         -23.1636   52.2554  -11.0652 C.ar    1  UNL1        0.0170
     21 C         -21.9915   52.8964  -11.4686 C.ar    1  UNL1        0.0309
     22 C         -20.9494   53.0961  -10.5598 C.ar    1  UNL1        0.1441
     23 F         -19.8264   53.7361  -10.9743 F       1  UNL1       -0.2042
     24 C         -21.0725   52.6530   -9.2295 C.ar    1  UNL1        0.1000
     25 C         -22.2652   52.0208   -8.8277 C.ar    1  UNL1        0.0208
     26 C         -19.9560   52.9117   -8.2457 C.3     1  UNL1        0.4207
     27 F         -18.9703   51.9523   -8.3930 F       1  UNL1       -0.1658
     28 F         -19.4118   54.1594   -8.4892 F       1  UNL1       -0.1658
     29 F         -20.4075   52.8716   -6.9376 F       1  UNL1       -0.1658
     30 C         -26.0902   51.0074   -5.4480 C.3     1  UNL1        0.2525
     31 O         -25.9929   50.3909   -6.7274 O.3     1  UNL1       -0.4696
     32 N         -30.3920   47.6628   -5.4841 N.pl3   1  UNL1       -0.2814
     33 H         -31.3983   47.8661   -5.2953 H       1  UNL1        0.1551
     34 C         -29.6963   46.8128   -4.5607 C.ar    1  UNL1        0.0889
     35 C         -29.1606   45.5962   -5.0155 C.ar    1  UNL1        0.1543
     36 F         -29.3153   45.2222   -6.3106 F       1  UNL1       -0.2028
     37 C         -28.4831   44.7501   -4.1329 C.ar    1  UNL1        0.0310
     38 C         -28.3225   45.1164   -2.7954 C.ar    1  UNL1        0.0033
     39 C         -28.8291   46.3349   -2.3381 C.ar    1  UNL1        0.0128
     40 C         -29.5098   47.1903   -3.2130 C.ar    1  UNL1        0.0733
     41 CL        -30.0451   48.7542   -2.6089 Cl      1  UNL1       -0.0809
@<TRIPOS>BOND
     1    30    31    1
     2    31     1    1
     3     1     2   ar
     4     2    15    1
     5    15    16    2
     6    15    17   am
     7    17    19    1
     8    19    20   ar
     9    20    21   ar
    10    21    22   ar
    11    22    23    1
    12    22    24   ar
    13    24    26    1
    14    26    27    1
    15    26    28    1
    16    26    29    1
    17    24    25   ar
    18     2     3   ar
    19     3     4   ar
    20     4     5   ar
    21     5     6   ar
    22     6     7   ar
    23     7     8   ar
    24     8    32    1
    25    32    34    1
    26    34    35   ar
    27    35    36    1
    28    35    37   ar
    29    37    38   ar
    30    38    39   ar
    31    39    40   ar
    32    40    41    1
    33     8     9   ar
    34     9    10    1
    35     4    11    1
    36    11    12    1
    37    12    13    1
    38    13    14    1
    39     6     1   ar
    40    40    34   ar
    41    25    19   ar
    42    14     3    1
    43     9     5   ar
    44    17    18    1
    45    32    33    1
@<TRIPOS>MOLECULE
*****
 41 45 0 0 0
SMALL
GASTEIGER

@<TRIPOS>ATOM
      1 C         -26.9483   50.5601   -7.2252 C.ar    1  UNL1        0.1652
      2 C         -26.2861   50.7786   -8.4660 C.ar    1  UNL1        0.1260
      3 C         -27.0558   50.8782   -9.6572 C.ar    1  UNL1        0.1812
      4 C         -28.4534   50.6943   -9.6292 C.ar    1  UNL1        0.1899
      5 C         -29.0609   50.4447   -8.3973 C.ar    1  UNL1        0.1203
      6 C         -28.3315   50.3827   -7.2447 C.ar    1  UNL1        0.1370
      7 N         -29.1363   50.1773   -6.1866 N.ar    1  UNL1       -0.2103
      8 C         -30.3701   50.1030   -6.7504 C.ar    1  UNL1        0.2019
      9 N         -30.3602   50.2496   -8.1027 N.ar    1  UNL1       -0.2949
     10 C         -31.4995   50.2487   -9.0202 C.3     1  UNL1        0.1333
     11 O         -29.1785   50.7640  -10.8224 O.3     1  UNL1       -0.4668
     12 C         -28.5191   50.7259  -12.0892 C.3     1  UNL1        0.2527
     13 C         -27.2159   51.5308  -12.0318 C.3     1  UNL1        0.2526
     14 O         -26.4468   51.1446  -10.8905 O.3     1  UNL1       -0.4681
     15 C         -24.8134   50.8827   -8.5424 C.2     1  UNL1        0.2556
     16 O         -24.1089   50.2534   -7.7069 O.2     1  UNL1       -0.2696
     17 N         -24.1914   51.6797   -9.5656 N.am    1  UNL1       -0.2802
     18 H         -24.7980   52.1096  -10.2995 H       1  UNL1        0.1552
     19 C         -22.7697   51.8252   -9.7137 C.ar    1  UNL1        0.0506
     20 C         -22.1801   51.5551  -10.9552 C.ar    1  UNL1        0.0170
     21 C         -20.8053   51.7147  -11.1336 C.ar    1  UNL1        0.0309
     22 C         -20.0045   52.1557  -10.0772 C.ar    1  UNL1        0.1441
     23 F         -18.6724   52.3173  -10.2821 F       1  UNL1       -0.2042
     24 C         -20.5771   52.4431   -8.8238 C.ar    1  UNL1        0.1000
     25 C         -21.9677   52.2936   -8.6577 C.ar    1  UNL1        0.0208
     26 C         -19.7076   52.9588   -7.7018 C.3     1  UNL1        0.4207
     27 F         -18.7335   52.0249   -7.3968 F       1  UNL1       -0.1658
     28 F         -19.0975   54.1343   -8.0992 F       1  UNL1       -0.1658
     29 F         -20.4444   53.2061   -6.5560 F       1  UNL1       -0.1658
     30 C         -26.5122   51.4904   -4.9762 C.3     1  UNL1        0.2525
     31 O         -26.2754   50.5295   -5.9994 O.3     1  UNL1       -0.4696
     32 N         -31.5669   49.9462   -5.9735 N.pl3   1  UNL1       -0.2814
     33 H         -32.4896   50.0929   -6.4390 H       1  UNL1        0.1551
     34 C         -31.5409   49.8987   -4.5395 C.ar    1  UNL1        0.0889
     35 C         -31.4387   48.6549   -3.8944 C.ar    1  UNL1        0.1543
     36 F         -31.3828   47.5101   -4.6206 F       1  UNL1       -0.2028
     37 C         -31.4164   48.5840   -2.4985 C.ar    1  UNL1        0.0310
     38 C         -31.4814   49.7520   -1.7365 C.ar    1  UNL1        0.0033
     39 C         -31.5579   50.9955   -2.3676 C.ar    1  UNL1        0.0128
     40 C         -31.5814   51.0787   -3.7651 C.ar    1  UNL1        0.0733
     41 CL        -31.5833   52.6732   -4.5099 Cl      1  UNL1       -0.0809
@<TRIPOS>BOND
     1    30    31    1
     2    31     1    1
     3     1     2   ar
     4     2    15    1
     5    15    16    2
     6    15    17   am
     7    17    19    1
     8    19    20   ar
     9    20    21   ar
    10    21    22   ar
    11    22    23    1
    12    22    24   ar
    13    24    26    1
    14    26    27    1
    15    26    28    1
    16    26    29    1
    17    24    25   ar
    18     2     3   ar
    19     3     4   ar
    20     4     5   ar
    21     5     6   ar
    22     6     7   ar
    23     7     8   ar
    24     8    32    1
    25    32    34    1
    26    34    35   ar
    27    35    36    1
    28    35    37   ar
    29    37    38   ar
    30    38    39   ar
    31    39    40   ar
    32    40    41    1
    33     8     9   ar
    34     9    10    1
    35     4    11    1
    36    11    12    1
    37    12    13    1
    38    13    14    1
    39     6     1   ar
    40    40    34   ar
    41    25    19   ar
    42    14     3    1
    43     9     5   ar
    44    17    18    1
    45    32    33    1
@<TRIPOS>MOLECULE
*****
 41 45 0 0 0
SMALL
GASTEIGER

@<TRIPOS>ATOM
      1 C         -26.5968   51.1795   -9.0424 C.ar    1  UNL1        0.1652
      2 C         -26.0165   51.2329  -10.3409 C.ar    1  UNL1        0.1260
      3 C         -26.8633   51.2106  -11.4827 C.ar    1  UNL1        0.1812
      4 C         -28.2588   51.0670  -11.3419 C.ar    1  UNL1        0.1899
      5 C         -28.7857   50.9803  -10.0520 C.ar    1  UNL1        0.1203
      6 C         -27.9811   51.0364   -8.9503 C.ar    1  UNL1        0.1370
      7 N         -28.7158   50.9781   -7.8250 N.ar    1  UNL1       -0.2103
      8 C         -29.9861   50.8692   -8.2943 C.ar    1  UNL1        0.2019
      9 N         -30.0652   50.8547   -9.6521 N.ar    1  UNL1       -0.2949
     10 C         -31.2640   50.7744  -10.4867 C.3     1  UNL1        0.1333
     11 O         -29.0618   51.0137  -12.4850 O.3     1  UNL1       -0.4668
     12 C         -28.4905   50.8093  -13.7784 C.3     1  UNL1        0.2527
     13 C         -27.1724   51.5819  -13.9028 C.3     1  UNL1        0.2526
     14 O         -26.3347   51.3137  -12.7761 O.3     1  UNL1       -0.4681
     15 C         -24.5507   51.2896  -10.5250 C.2     1  UNL1        0.2556
     16 O         -24.0172   50.5874  -11.4264 O.2     1  UNL1       -0.2696
     17 N         -23.7450   52.1461   -9.6966 N.am    1  UNL1       -0.2802
     18 H         -24.2262   52.7860   -9.0256 H       1  UNL1        0.1552
     19 C         -22.3183   52.2656   -9.8175 C.ar    1  UNL1        0.0506
     20 C         -21.7316   52.2007  -11.0877 C.ar    1  UNL1        0.0170
     21 C         -20.3511   52.3411  -11.2358 C.ar    1  UNL1        0.0309
     22 C         -19.5413   52.5582  -10.1183 C.ar    1  UNL1        0.1441
     23 F         -18.2033   52.7067  -10.2921 F       1  UNL1       -0.2042
     24 C         -20.1105   52.6372   -8.8333 C.ar    1  UNL1        0.1000
     25 C         -21.5063   52.5095   -8.6955 C.ar    1  UNL1        0.0208
     26 C         -19.2297   52.9136   -7.6379 C.3     1  UNL1        0.4207
     27 F         -18.4393   54.0219   -7.8847 F       1  UNL1       -0.1658
     28 F         -20.0230   53.1617   -6.5329 F       1  UNL1       -0.1658
     29 F         -18.3985   51.8428   -7.3566 F       1  UNL1       -0.1658
     30 C         -25.4663   50.1339   -7.1080 C.3     1  UNL1        0.2525
     31 O         -25.8430   51.2768   -7.8682 O.3     1  UNL1       -0.4696
     32 N         -31.1300   50.8359   -7.4278 N.pl3   1  UNL1       -0.2814
     33 H         -31.9946   51.3430   -7.7193 H       1  UNL1        0.1551
     34 C         -31.0372   50.4011   -6.0634 C.ar    1  UNL1        0.0889
     35 C         -31.1079   51.3524   -5.0321 C.ar    1  UNL1        0.1543
     36 F         -31.2451   52.6702   -5.3251 F       1  UNL1       -0.2028
     37 C         -31.0150   50.9524   -3.6959 C.ar    1  UNL1        0.0310
     38 C         -30.8653   49.6014   -3.3777 C.ar    1  UNL1        0.0033
     39 C         -30.8190   48.6444   -4.3939 C.ar    1  UNL1        0.0128
     40 C         -30.9107   49.0334   -5.7359 C.ar    1  UNL1        0.0733
     41 CL        -30.9418   47.7806   -6.9714 Cl      1  UNL1       -0.0809
@<TRIPOS>BOND
     1    30    31    1
     2    31     1    1
     3     1     2   ar
     4     2    15    1
     5    15    16    2
     6    15    17   am
     7    17    19    1
     8    19    20   ar
     9    20    21   ar
    10    21    22   ar
    11    22    23    1
    12    22    24   ar
    13    24    26    1
    14    26    27    1
    15    26    28    1
    16    26    29    1
    17    24    25   ar
    18     2     3   ar
    19     3     4   ar
    20     4     5   ar
    21     5     6   ar
    22     6     7   ar
    23     7     8   ar
    24     8    32    1
    25    32    34    1
    26    34    35   ar
    27    35    36    1
    28    35    37   ar
    29    37    38   ar
    30    38    39   ar
    31    39    40   ar
    32    40    41    1
    33     8     9   ar
    34     9    10    1
    35     4    11    1
    36    11    12    1
    37    12    13    1
    38    13    14    1
    39     6     1   ar
    40    40    34   ar
    41    25    19   ar
    42    14     3    1
    43     9     5   ar
    44    17    18    1
    45    32    33    1
@<TRIPOS>MOLECULE
*****
 41 45 0 0 0
SMALL
GASTEIGER

@<TRIPOS>ATOM
      1 C         -26.8645   50.1284   -6.8447 C.ar    1  UNL1        0.1652
      2 C         -26.8872   50.5542   -8.2026 C.ar    1  UNL1        0.1260
      3 C         -27.9410   50.1173   -9.0511 C.ar    1  UNL1        0.1812
      4 C         -28.9181   49.2163   -8.5805 C.ar    1  UNL1        0.1899
      5 C         -28.8393   48.7929   -7.2526 C.ar    1  UNL1        0.1203
      6 C         -27.8500   49.2363   -6.4226 C.ar    1  UNL1        0.1370
      7 N         -28.0067   48.7284   -5.1869 N.ar    1  UNL1       -0.2103
      8 C         -29.1156   47.9536   -5.3129 C.ar    1  UNL1        0.2019
      9 N         -29.6439   47.9594   -6.5663 N.ar    1  UNL1       -0.2949
     10 C         -30.8383   47.2648   -7.0467 C.3     1  UNL1        0.1333
     11 O         -29.9221   48.7780   -9.4490 O.3     1  UNL1       -0.4668
     12 C         -29.8193   48.9846  -10.8589 C.3     1  UNL1        0.2527
     13 C         -29.2169   50.3640  -11.1490 C.3     1  UNL1        0.2526
     14 O         -28.0280   50.5554  -10.3790 O.3     1  UNL1       -0.4681
     15 C         -25.8257   51.4241   -8.7523 C.2     1  UNL1        0.2556
     16 O         -26.0645   52.6502   -8.9252 O.2     1  UNL1       -0.2696
     17 N         -24.5323   50.8819   -9.0720 N.am    1  UNL1       -0.2802
     18 H         -24.3358   49.8855   -8.8275 H       1  UNL1        0.1552
     19 C         -23.4462   51.6602   -9.6002 C.ar    1  UNL1        0.0506
     20 C         -23.5527   52.1967  -10.8897 C.ar    1  UNL1        0.0170
     21 C         -22.5241   52.9790  -11.4161 C.ar    1  UNL1        0.0309
     22 C         -21.3812   53.2433  -10.6572 C.ar    1  UNL1        0.1441
     23 F         -20.4024   54.0200  -11.1875 F       1  UNL1       -0.2042
     24 C         -21.2573   52.7231   -9.3552 C.ar    1  UNL1        0.1000
     25 C         -22.3073   51.9474   -8.8267 C.ar    1  UNL1        0.0208
     26 C         -20.0358   53.0502   -8.5293 C.3     1  UNL1        0.4207
     27 F         -19.6467   54.3567   -8.7656 F       1  UNL1       -0.1658
     28 F         -20.3382   52.9048   -7.1879 F       1  UNL1       -0.1658
     29 F         -18.9724   52.2191   -8.8376 F       1  UNL1       -0.1658
     30 C         -26.2505   51.3990   -4.8144 C.3     1  UNL1        0.2525
     31 O         -25.9108   50.5745   -5.9239 O.3     1  UNL1       -0.4696
     32 N         -29.6975   47.2510   -4.2047 N.pl3   1  UNL1       -0.2814
     33 H         -30.0858   46.2954   -4.3652 H       1  UNL1        0.1551
     34 C         -30.0386   47.9147   -2.9790 C.ar    1  UNL1        0.0889
     35 C         -29.4576   47.4789   -1.7763 C.ar    1  UNL1        0.1543
     36 F         -28.5966   46.4303   -1.7730 F       1  UNL1       -0.2028
     37 C         -29.7786   48.1073   -0.5696 C.ar    1  UNL1        0.0310
     38 C         -30.6691   49.1823   -0.5547 C.ar    1  UNL1        0.0033
     39 C         -31.2333   49.6400   -1.7475 C.ar    1  UNL1        0.0128
     40 C         -30.9194   49.0181   -2.9621 C.ar    1  UNL1        0.0733
     41 CL        -31.5837   49.6929   -4.4455 Cl      1  UNL1       -0.0809
@<TRIPOS>BOND
     1    30    31    1
     2    31     1    1
     3     1     2   ar
     4     2    15    1
     5    15    16    2
     6    15    17   am
     7    17    19    1
     8    19    20   ar
     9    20    21   ar
    10    21    22   ar
    11    22    23    1
    12    22    24   ar
    13    24    26    1
    14    26    27    1
    15    26    28    1
    16    26    29    1
    17    24    25   ar
    18     2     3   ar
    19     3     4   ar
    20     4     5   ar
    21     5     6   ar
    22     6     7   ar
    23     7     8   ar
    24     8    32    1
    25    32    34    1
    26    34    35   ar
    27    35    36    1
    28    35    37   ar
    29    37    38   ar
    30    38    39   ar
    31    39    40   ar
    32    40    41    1
    33     8     9   ar
    34     9    10    1
    35     4    11    1
    36    11    12    1
    37    12    13    1
    38    13    14    1
    39     6     1   ar
    40    40    34   ar
    41    25    19   ar
    42    14     3    1
    43     9     5   ar
    44    17    18    1
    45    32    33    1
@<TRIPOS>MOLECULE
*****
 41 45 0 0 0
SMALL
GASTEIGER

@<TRIPOS>ATOM
      1 C         -26.2863   50.3963   -9.8704 C.ar    1  UNL1        0.1652
      2 C         -25.7422   50.7363   -8.5999 C.ar    1  UNL1        0.1260
      3 C         -26.6093   50.8444   -7.4784 C.ar    1  UNL1        0.1812
      4 C         -28.0025   50.6870   -7.6272 C.ar    1  UNL1        0.1899
      5 C         -28.5005   50.3909   -8.8973 C.ar    1  UNL1        0.1203
      6 C         -27.6696   50.2511   -9.9717 C.ar    1  UNL1        0.1370
      7 N         -28.3709   49.9241  -11.0721 N.ar    1  UNL1       -0.2103
      8 C         -29.6515   49.8892  -10.6197 C.ar    1  UNL1        0.2019
      9 N         -29.7693   50.1822   -9.2966 N.ar    1  UNL1       -0.2949
     10 C         -30.9844   50.2127   -8.4825 C.3     1  UNL1        0.1333
     11 O         -28.8324   50.8334   -6.5117 O.3     1  UNL1       -0.4668
     12 C         -28.3456   51.4175   -5.3022 C.3     1  UNL1        0.2527
     13 C         -26.9097   50.9543   -5.0314 C.3     1  UNL1        0.2526
     14 O         -26.1066   51.1259   -6.2013 O.3     1  UNL1       -0.4681
     15 C         -24.2976   50.9996   -8.4288 C.2     1  UNL1        0.2556
     16 O         -23.7073   50.5478   -7.4102 O.2     1  UNL1       -0.2696
     17 N         -23.5713   51.7487   -9.4189 N.am    1  UNL1       -0.2802
     18 H         -24.0665   52.0256  -10.2961 H       1  UNL1        0.1552
     19 C         -22.1669   52.0393   -9.3320 C.ar    1  UNL1        0.0506
     20 C         -21.6066   52.3404   -8.0841 C.ar    1  UNL1        0.0170
     21 C         -20.2403   52.5996   -7.9676 C.ar    1  UNL1        0.0309
     22 C         -19.4157   52.5512   -9.0943 C.ar    1  UNL1        0.1441
     23 F         -18.0876   52.7923   -8.9505 F       1  UNL1       -0.2042
     24 C         -19.9554   52.2405  -10.3567 C.ar    1  UNL1        0.1000
     25 C         -21.3326   51.9655  -10.4618 C.ar    1  UNL1        0.0208
     26 C         -19.0469   52.1504  -11.5599 C.3     1  UNL1        0.4207
     27 F         -19.3860   51.0460  -12.3211 F       1  UNL1       -0.1658
     28 F         -19.1917   53.2905  -12.3288 F       1  UNL1       -0.1658
     29 F         -17.7183   52.0300  -11.1898 F       1  UNL1       -0.1658
     30 C         -25.3584   51.1751  -12.0259 C.3     1  UNL1        0.2525
     31 O         -25.4955   50.1917  -11.0059 O.3     1  UNL1       -0.4696
     32 N         -30.7569   49.5167  -11.4561 N.pl3   1  UNL1       -0.2814
     33 H         -31.7160   49.8298  -11.1883 H       1  UNL1        0.1551
     34 C         -30.6417   48.4949  -12.4570 C.ar    1  UNL1        0.0889
     35 C         -30.2497   47.2006  -12.0764 C.ar    1  UNL1        0.1543
     36 F         -29.9665   46.9255  -10.7782 F       1  UNL1       -0.2028
     37 C         -30.1262   46.1905  -13.0348 C.ar    1  UNL1        0.0310
     38 C         -30.4058   46.4592  -14.3758 C.ar    1  UNL1        0.0033
     39 C         -30.8205   47.7358  -14.7618 C.ar    1  UNL1        0.0128
     40 C         -30.9474   48.7554  -13.8106 C.ar    1  UNL1        0.0733
     41 CL        -31.5633   50.3185  -14.3346 Cl      1  UNL1       -0.0809
@<TRIPOS>BOND
     1    30    31    1
     2    31     1    1
     3     1     2   ar
     4     2    15    1
     5    15    16    2
     6    15    17   am
     7    17    19    1
     8    19    20   ar
     9    20    21   ar
    10    21    22   ar
    11    22    23    1
    12    22    24   ar
    13    24    26    1
    14    26    27    1
    15    26    28    1
    16    26    29    1
    17    24    25   ar
    18     2     3   ar
    19     3     4   ar
    20     4     5   ar
    21     5     6   ar
    22     6     7   ar
    23     7     8   ar
    24     8    32    1
    25    32    34    1
    26    34    35   ar
    27    35    36    1
    28    35    37   ar
    29    37    38   ar
    30    38    39   ar
    31    39    40   ar
    32    40    41    1
    33     8     9   ar
    34     9    10    1
    35     4    11    1
    36    11    12    1
    37    12    13    1
    38    13    14    1
    39     6     1   ar
    40    40    34   ar
    41    25    19   ar
    42    14     3    1
    43     9     5   ar
    44    17    18    1
    45    32    33    1
@<TRIPOS>MOLECULE
*****
 41 45 0 0 0
SMALL
GASTEIGER

@<TRIPOS>ATOM
      1 C         -27.1939   50.1904   -7.7103 C.ar    1  UNL1        0.1652
      2 C         -26.9688   50.9395   -8.8994 C.ar    1  UNL1        0.1260
      3 C         -27.9711   50.9621   -9.9074 C.ar    1  UNL1        0.1812
      4 C         -29.1480   50.1980   -9.7702 C.ar    1  UNL1        0.1899
      5 C         -29.3143   49.4470   -8.6052 C.ar    1  UNL1        0.1203
      6 C         -28.3713   49.4487   -7.6178 C.ar    1  UNL1        0.1370
      7 N         -28.7713   48.6906   -6.5810 N.ar    1  UNL1       -0.2103
      8 C         -29.9793   48.2237   -6.9914 C.ar    1  UNL1        0.2019
      9 N         -30.3375   48.6561   -8.2303 N.ar    1  UNL1       -0.2949
     10 C         -31.5701   48.3721   -8.9652 C.3     1  UNL1        0.1333
     11 O         -30.0996   50.2139  -10.7943 O.3     1  UNL1       -0.4668
     12 C         -29.7860   50.7426  -12.0840 C.3     1  UNL1        0.2527
     13 C         -28.9088   51.9919  -11.9447 C.3     1  UNL1        0.2526
     14 O         -27.8102   51.7288  -11.0690 O.3     1  UNL1       -0.4681
     15 C         -25.7054   51.6763   -9.1150 C.2     1  UNL1        0.2556
     16 O         -25.7524   52.8886   -9.4592 O.2     1  UNL1       -0.2696
     17 N         -24.4387   51.0232   -8.9204 N.am    1  UNL1       -0.2802
     18 H         -24.4335   50.0493   -8.5427 H       1  UNL1        0.1552
     19 C         -23.1684   51.6701   -9.0999 C.ar    1  UNL1        0.0506
     20 C         -22.2374   51.6516   -8.0536 C.ar    1  UNL1        0.0170
     21 C         -20.9860   52.2486   -8.2113 C.ar    1  UNL1        0.0309
     22 C         -20.6456   52.8622   -9.4194 C.ar    1  UNL1        0.1441
     23 F         -19.4160   53.4219   -9.5515 F       1  UNL1       -0.2042
     24 C         -21.5616   52.8837  -10.4879 C.ar    1  UNL1        0.1000
     25 C         -22.8164   52.2653  -10.3245 C.ar    1  UNL1        0.0208
     26 C         -21.1667   53.5135  -11.8027 C.3     1  UNL1        0.4207
     27 F         -20.2799   52.6874  -12.4701 F       1  UNL1       -0.1658
     28 F         -22.2947   53.6891  -12.5828 F       1  UNL1       -0.1658
     29 F         -20.5581   54.7432  -11.6183 F       1  UNL1       -0.1658
     30 C         -26.5306   50.9137   -5.4408 C.3     1  UNL1        0.2525
     31 O         -26.2964   50.1792   -6.6375 O.3     1  UNL1       -0.4696
     32 N         -30.8139   47.4033   -6.1602 N.pl3   1  UNL1       -0.2814
     33 H         -31.8008   47.6994   -5.9931 H       1  UNL1        0.1551
     34 C         -30.2714   46.3765   -5.3171 C.ar    1  UNL1        0.0889
     35 C         -30.0782   46.6395   -3.9507 C.ar    1  UNL1        0.1543
     36 F         -30.3854   47.8578   -3.4383 F       1  UNL1       -0.2028
     37 C         -29.5468   45.6560   -3.1114 C.ar    1  UNL1        0.0310
     38 C         -29.2177   44.4001   -3.6244 C.ar    1  UNL1        0.0033
     39 C         -29.4290   44.1194   -4.9762 C.ar    1  UNL1        0.0128
     40 C         -29.9603   45.0968   -5.8264 C.ar    1  UNL1        0.0733
     41 CL        -30.2942   44.6615   -7.4985 Cl      1  UNL1       -0.0809
@<TRIPOS>BOND
     1    30    31    1
     2    31     1    1
     3     1     2   ar
     4     2    15    1
     5    15    16    2
     6    15    17   am
     7    17    19    1
     8    19    20   ar
     9    20    21   ar
    10    21    22   ar
    11    22    23    1
    12    22    24   ar
    13    24    26    1
    14    26    27    1
    15    26    28    1
    16    26    29    1
    17    24    25   ar
    18     2     3   ar
    19     3     4   ar
    20     4     5   ar
    21     5     6   ar
    22     6     7   ar
    23     7     8   ar
    24     8    32    1
    25    32    34    1
    26    34    35   ar
    27    35    36    1
    28    35    37   ar
    29    37    38   ar
    30    38    39   ar
    31    39    40   ar
    32    40    41    1
    33     8     9   ar
    34     9    10    1
    35     4    11    1
    36    11    12    1
    37    12    13    1
    38    13    14    1
    39     6     1   ar
    40    40    34   ar
    41    25    19   ar
    42    14     3    1
    43     9     5   ar
    44    17    18    1
    45    32    33    1
@<TRIPOS>MOLECULE
*****
 41 45 0 0 0
SMALL
GASTEIGER

@<TRIPOS>ATOM
      1 C         -23.9729   51.7194  -11.3212 C.ar    1  UNL1        0.1652
      2 C         -23.8739   51.4590   -9.9254 C.ar    1  UNL1        0.1260
      3 C         -25.0251   51.0184   -9.2167 C.ar    1  UNL1        0.1812
      4 C         -26.2712   50.9051   -9.8663 C.ar    1  UNL1        0.1899
      5 C         -26.3346   51.2058  -11.2281 C.ar    1  UNL1        0.1203
      6 C         -25.2253   51.5955  -11.9222 C.ar    1  UNL1        0.1370
      7 N         -25.5226   51.7854  -13.2204 N.ar    1  UNL1       -0.2103
      8 C         -26.8520   51.5104  -13.2732 C.ar    1  UNL1        0.2019
      9 N         -27.3844   51.1646  -12.0702 N.ar    1  UNL1       -0.2949
     10 C         -28.7645   50.7848  -11.7683 C.3     1  UNL1        0.1333
     11 O         -27.3923   50.5025   -9.1344 O.3     1  UNL1       -0.4668
     12 C         -27.3729   50.4853   -7.7060 C.3     1  UNL1        0.2527
     13 C         -26.0122   49.9922   -7.2011 C.3     1  UNL1        0.2526
     14 O         -24.9568   50.7017   -7.8537 O.3     1  UNL1       -0.4681
     15 C         -22.6039   51.6579   -9.1954 C.2     1  UNL1        0.2556
     16 O         -22.6063   51.6136   -7.9351 O.2     1  UNL1       -0.2696
     17 N         -21.3784   51.8844   -9.9137 N.am    1  UNL1       -0.2802
     18 H         -21.3930   51.8193  -10.9562 H       1  UNL1        0.1552
     19 C         -20.1031   52.0772   -9.2806 C.ar    1  UNL1        0.0506
     20 C         -20.0548   52.6247   -7.9923 C.ar    1  UNL1        0.0170
     21 C         -18.8312   52.7972   -7.3439 C.ar    1  UNL1        0.0309
     22 C         -17.6422   52.4155   -7.9703 C.ar    1  UNL1        0.1441
     23 F         -16.4671   52.5800   -7.3111 F       1  UNL1       -0.2042
     24 C         -17.6678   51.8537   -9.2606 C.ar    1  UNL1        0.1000
     25 C         -18.9086   51.6694   -9.9009 C.ar    1  UNL1        0.0208
     26 C         -16.3797   51.4067   -9.9104 C.3     1  UNL1        0.4207
     27 F         -16.1108   50.0947   -9.5637 F       1  UNL1       -0.1658
     28 F         -16.5065   51.4937  -11.2846 F       1  UNL1       -0.1658
     29 F         -15.3083   52.1881   -9.5128 F       1  UNL1       -0.1658
     30 C         -22.4670   53.4320  -12.2766 C.3     1  UNL1        0.2525
     31 O         -22.8731   52.0782  -12.1074 O.3     1  UNL1       -0.4696
     32 N         -27.5967   51.5276  -14.5002 N.pl3   1  UNL1       -0.2814
     33 H         -28.5875   51.8554  -14.4807 H       1  UNL1        0.1551
     34 C         -27.1432   50.8375  -15.6738 C.ar    1  UNL1        0.0889
     35 C         -25.9067   51.1866  -16.2422 C.ar    1  UNL1        0.1543
     36 F         -25.1583   52.1780  -15.6962 F       1  UNL1       -0.2028
     37 C         -25.4470   50.5312  -17.3881 C.ar    1  UNL1        0.0310
     38 C         -26.2087   49.5147  -17.9670 C.ar    1  UNL1        0.0033
     39 C         -27.4277   49.1422  -17.3960 C.ar    1  UNL1        0.0128
     40 C         -27.8984   49.7919  -16.2484 C.ar    1  UNL1        0.0733
     41 CL        -29.3931   49.2210  -15.5156 Cl      1  UNL1       -0.0809
@<TRIPOS>BOND
     1    30    31    1
     2    31     1    1
     3     1     2   ar
     4     2    15    1
     5    15    16    2
     6    15    17   am
     7    17    19    1
     8    19    20   ar
     9    20    21   ar
    10    21    22   ar
    11    22    23    1
    12    22    24   ar
    13    24    26    1
    14    26    27    1
    15    26    28    1
    16    26    29    1
    17    24    25   ar
    18     2     3   ar
    19     3     4   ar
    20     4     5   ar
    21     5     6   ar
    22     6     7   ar
    23     7     8   ar
    24     8    32    1
    25    32    34    1
    26    34    35   ar
    27    35    36    1
    28    35    37   ar
    29    37    38   ar
    30    38    39   ar
    31    39    40   ar
    32    40    41    1
    33     8     9   ar
    34     9    10    1
    35     4    11    1
    36    11    12    1
    37    12    13    1
    38    13    14    1
    39     6     1   ar
    40    40    34   ar
    41    25    19   ar
    42    14     3    1
    43     9     5   ar
    44    17    18    1
    45    32    33    1
