@<TRIPOS>MOLECULE
*****
 35 38 0 0 0
SMALL
GASTEIGER

@<TRIPOS>ATOM
      1 C          46.0519   12.0996  -29.8440 C.ar    1  UNL1        0.1718
      2 C          46.4562   11.0611  -28.9905 C.ar    1  UNL1        0.0400
      3 C          46.8502   11.3350  -27.6837 C.ar    1  UNL1        0.0030
      4 C          46.8827   12.6532  -27.2051 C.ar    1  UNL1       -0.0015
      5 C          46.5467   13.7179  -28.0799 C.ar    1  UNL1        0.0145
      6 C          46.0722   13.4246  -29.3844 C.ar    1  UNL1        0.1636
      7 O          45.5964   14.4160  -30.2477 O.3     1  UNL1       -0.5031
      8 C          46.7183   15.1392  -27.5886 C.3     1  UNL1        0.0299
      9 C          45.6169   15.5318  -26.5931 C.3     1  UNL1        0.0091
     10 C          45.3124   14.4541  -25.5336 C.3     1  UNL1        0.0227
     11 C          46.5617   13.7761  -24.9950 C.2     1  UNL1       -0.0398
     12 C          47.2553   12.8986  -25.7776 C.2     1  UNL1       -0.0076
     13 H          45.4001   15.3656  -29.9634 H       1  UNL1        0.2923
     14 C          48.4338   12.1738  -25.2552 C.ar    1  UNL1        0.0056
     15 C          49.7231   12.5521  -25.6339 C.ar    1  UNL1        0.0402
     16 C          50.8409   11.8532  -25.1472 C.ar    1  UNL1        0.1754
     17 C          50.6649   10.7611  -24.2798 C.ar    1  UNL1        0.2061
     18 C          49.3557   10.3815  -23.8826 C.ar    1  UNL1        0.1754
     19 C          48.2537   11.1104  -24.3676 C.ar    1  UNL1        0.0402
     20 O          52.1502   12.2063  -25.5127 O.3     1  UNL1       -0.4683
     21 C          52.7791   11.8265  -26.7326 C.3     1  UNL1        0.2526
     22 O          51.8324   10.0976  -23.8561 O.3     1  UNL1       -0.4654
     23 C          52.4122    8.9402  -24.4471 C.3     1  UNL1        0.2528
     24 O          49.1704    9.2898  -23.0198 O.3     1  UNL1       -0.4683
     25 C          49.4521    9.2951  -21.6238 C.3     1  UNL1        0.2526
     26 C          46.0746   12.5554  -32.3058 C.3     1  UNL1        0.2526
     27 O          45.6120   11.8554  -31.1551 O.3     1  UNL1       -0.4684
     28 C          46.9431   14.0353  -23.5418 C.3     1  UNL1        0.0487
     29 C          48.3339   14.6207  -23.3858 C.ar    1  UNL1       -0.0127
     30 C          48.7643   15.6204  -24.2789 C.ar    1  UNL1       -0.0035
     31 C          50.0547   16.1458  -24.1946 C.ar    1  UNL1       -0.0003
     32 C          50.9254   15.7035  -23.2001 C.ar    1  UNL1        0.0004
     33 C          50.4986   14.7538  -22.2717 C.ar    1  UNL1        0.0055
     34 C          49.2052   14.2207  -22.3416 C.ar    1  UNL1        0.0264
     35 I          48.6552   12.8680  -20.7985 I       1  UNL1       -0.0428
@<TRIPOS>BOND
     1    26    27    1
     2    27     1    1
     3     1     2   ar
     4     2     3   ar
     5     3     4   ar
     6     4     5   ar
     7     5     6   ar
     8     6     7    1
     9     5     8    1
    10     8     9    1
    11     9    10    1
    12    10    11    1
    13    11    28    1
    14    28    29    1
    15    29    30   ar
    16    30    31   ar
    17    31    32   ar
    18    32    33   ar
    19    33    34   ar
    20    34    35    1
    21    11    12    2
    22    12    14    1
    23    14    15   ar
    24    15    16   ar
    25    16    20    1
    26    20    21    1
    27    16    17   ar
    28    17    22    1
    29    22    23    1
    30    17    18   ar
    31    18    24    1
    32    24    25    1
    33    18    19   ar
    34     6     1   ar
    35    34    29   ar
    36    19    14   ar
    37    12     4    1
    38     7    13    1
@<TRIPOS>MOLECULE
*****
 35 38 0 0 0
SMALL
GASTEIGER

@<TRIPOS>ATOM
      1 C          46.0087   12.1376  -29.8525 C.ar    1  UNL1        0.1718
      2 C          46.4232   11.0896  -29.0156 C.ar    1  UNL1        0.0400
      3 C          46.8386   11.3496  -27.7126 C.ar    1  UNL1        0.0030
      4 C          46.8827   12.6630  -27.2218 C.ar    1  UNL1       -0.0015
      5 C          46.5361   13.7371  -28.0807 C.ar    1  UNL1        0.0145
      6 C          46.0402   13.4580  -29.3803 C.ar    1  UNL1        0.1636
      7 O          45.5539   14.4592  -30.2263 O.3     1  UNL1       -0.5031
      8 C          46.7197   15.1530  -27.5783 C.3     1  UNL1        0.0299
      9 C          45.6354   15.5390  -26.5618 C.3     1  UNL1        0.0091
     10 C          45.3444   14.4518  -25.5082 C.3     1  UNL1        0.0227
     11 C          46.6000   13.7650  -24.9960 C.2     1  UNL1       -0.0398
     12 C          47.2785   12.8933  -25.7980 C.2     1  UNL1       -0.0076
     13 H          45.3649   15.4064  -29.9297 H       1  UNL1        0.2923
     14 C          48.4629   12.1600  -25.3015 C.ar    1  UNL1        0.0056
     15 C          48.3165   11.1109  -24.3921 C.ar    1  UNL1        0.0402
     16 C          49.4445   10.4246  -23.9109 C.ar    1  UNL1        0.1754
     17 C          50.7305   10.7976  -24.3387 C.ar    1  UNL1        0.2061
     18 C          50.8822   11.8558  -25.2731 C.ar    1  UNL1        0.1754
     19 C          49.7355   12.5139  -25.7557 C.ar    1  UNL1        0.0402
     20 O          49.3308    9.3681  -22.9925 O.3     1  UNL1       -0.4683
     21 C          48.4144    9.3394  -21.9029 C.3     1  UNL1        0.2526
     22 O          51.8104   10.0781  -23.7919 O.3     1  UNL1       -0.4654
     23 C          52.5040    8.9955  -24.4020 C.3     1  UNL1        0.2528
     24 O          52.1629   12.2375  -25.7027 O.3     1  UNL1       -0.4683
     25 C          52.8130   11.7455  -26.8704 C.3     1  UNL1        0.2526
     26 C          46.0193   12.5929  -32.3144 C.3     1  UNL1        0.2526
     27 O          45.5474   11.9075  -31.1588 O.3     1  UNL1       -0.4684
     28 C          47.0052   14.0089  -23.5466 C.3     1  UNL1        0.0487
     29 C          48.3875   14.6182  -23.4084 C.ar    1  UNL1       -0.0127
     30 C          48.7927   15.6184  -24.3128 C.ar    1  UNL1       -0.0035
     31 C          50.0750   16.1655  -24.2448 C.ar    1  UNL1       -0.0003
     32 C          50.9624   15.7448  -23.2558 C.ar    1  UNL1        0.0004
     33 C          50.5604   14.7950  -22.3165 C.ar    1  UNL1        0.0055
     34 C          49.2753   14.2402  -22.3700 C.ar    1  UNL1        0.0264
     35 I          48.7627   12.8899  -20.8120 I       1  UNL1       -0.0428
@<TRIPOS>BOND
     1    26    27    1
     2    27     1    1
     3     1     2   ar
     4     2     3   ar
     5     3     4   ar
     6     4     5   ar
     7     5     6   ar
     8     6     7    1
     9     5     8    1
    10     8     9    1
    11     9    10    1
    12    10    11    1
    13    11    28    1
    14    28    29    1
    15    29    30   ar
    16    30    31   ar
    17    31    32   ar
    18    32    33   ar
    19    33    34   ar
    20    34    35    1
    21    11    12    2
    22    12    14    1
    23    14    15   ar
    24    15    16   ar
    25    16    20    1
    26    20    21    1
    27    16    17   ar
    28    17    22    1
    29    22    23    1
    30    17    18   ar
    31    18    24    1
    32    24    25    1
    33    18    19   ar
    34     6     1   ar
    35    34    29   ar
    36    19    14   ar
    37    12     4    1
    38     7    13    1
@<TRIPOS>MOLECULE
*****
 35 38 0 0 0
SMALL
GASTEIGER

@<TRIPOS>ATOM
      1 C          45.9132   13.1885  -29.0505 C.ar    1  UNL1        0.1718
      2 C          46.2521   12.0650  -28.2802 C.ar    1  UNL1        0.0400
      3 C          46.8836   12.2182  -27.0490 C.ar    1  UNL1        0.0030
      4 C          47.2226   13.4923  -26.5699 C.ar    1  UNL1       -0.0015
      5 C          46.9515   14.6304  -27.3716 C.ar    1  UNL1        0.0145
      6 C          46.2387   14.4720  -28.5880 C.ar    1  UNL1        0.1636
      7 O          45.8204   15.5620  -29.3571 O.3     1  UNL1       -0.5031
      8 C          47.4460   15.9812  -26.9007 C.3     1  UNL1        0.0299
      9 C          46.5973   16.5230  -25.7413 C.3     1  UNL1        0.0091
     10 C          46.2717   15.4768  -24.6568 C.3     1  UNL1        0.0227
     11 C          47.4480   14.5724  -24.3269 C.2     1  UNL1       -0.0398
     12 C          47.8467   13.6167  -25.2164 C.2     1  UNL1       -0.0076
     13 H          45.8418   16.5202  -29.0371 H       1  UNL1        0.2923
     14 C          48.9434   12.6791  -24.8918 C.ar    1  UNL1        0.0056
     15 C          48.6709   11.4567  -24.2752 C.ar    1  UNL1        0.0402
     16 C          49.7159   10.5733  -23.9552 C.ar    1  UNL1        0.1754
     17 C          51.0460   10.9212  -24.2485 C.ar    1  UNL1        0.2061
     18 C          51.3256   12.1581  -24.8871 C.ar    1  UNL1        0.1754
     19 C          50.2596   13.0162  -25.2159 C.ar    1  UNL1        0.0402
     20 O          49.4750    9.3384  -23.3309 O.3     1  UNL1       -0.4683
     21 C          49.3607    9.1530  -21.9236 C.3     1  UNL1        0.2526
     22 O          52.0376    9.9941  -23.8743 O.3     1  UNL1       -0.4654
     23 C          52.5143    8.9017  -24.6519 C.3     1  UNL1        0.2528
     24 O          52.6511   12.5153  -25.1802 O.3     1  UNL1       -0.4683
     25 C          53.4168   11.9954  -26.2626 C.3     1  UNL1        0.2526
     26 C          45.7712   12.4244  -31.4305 C.3     1  UNL1        0.2526
     27 O          45.2417   13.0727  -30.2784 O.3     1  UNL1       -0.4684
     28 C          48.0871   14.7080  -22.9493 C.3     1  UNL1        0.0487
     29 C          47.7277   13.5716  -22.0109 C.ar    1  UNL1       -0.0127
     30 C          46.4699   12.9505  -22.1316 C.ar    1  UNL1       -0.0035
     31 C          46.0876   11.9352  -21.2534 C.ar    1  UNL1       -0.0003
     32 C          46.9652   11.5036  -20.2603 C.ar    1  UNL1        0.0004
     33 C          48.2368   12.0685  -20.1599 C.ar    1  UNL1        0.0055
     34 C          48.6355   13.0854  -21.0367 C.ar    1  UNL1        0.0264
     35 I          50.6355   13.7741  -20.8392 I       1  UNL1       -0.0428
@<TRIPOS>BOND
     1    26    27    1
     2    27     1    1
     3     1     2   ar
     4     2     3   ar
     5     3     4   ar
     6     4     5   ar
     7     5     6   ar
     8     6     7    1
     9     5     8    1
    10     8     9    1
    11     9    10    1
    12    10    11    1
    13    11    28    1
    14    28    29    1
    15    29    30   ar
    16    30    31   ar
    17    31    32   ar
    18    32    33   ar
    19    33    34   ar
    20    34    35    1
    21    11    12    2
    22    12    14    1
    23    14    15   ar
    24    15    16   ar
    25    16    20    1
    26    20    21    1
    27    16    17   ar
    28    17    22    1
    29    22    23    1
    30    17    18   ar
    31    18    24    1
    32    24    25    1
    33    18    19   ar
    34     6     1   ar
    35    34    29   ar
    36    19    14   ar
    37    12     4    1
    38     7    13    1
@<TRIPOS>MOLECULE
*****
 35 38 0 0 0
SMALL
GASTEIGER

@<TRIPOS>ATOM
      1 C          45.9377   13.1068  -29.0025 C.ar    1  UNL1        0.1718
      2 C          46.2835   11.9972  -28.2154 C.ar    1  UNL1        0.0400
      3 C          46.9091   12.1730  -26.9843 C.ar    1  UNL1        0.0030
      4 C          47.2355   13.4566  -26.5218 C.ar    1  UNL1       -0.0015
      5 C          46.9574   14.5810  -27.3403 C.ar    1  UNL1        0.0145
      6 C          46.2504   14.3995  -28.5569 C.ar    1  UNL1        0.1636
      7 O          45.8255   15.4750  -29.3426 O.3     1  UNL1       -0.5031
      8 C          47.4386   15.9424  -26.8867 C.3     1  UNL1        0.0299
      9 C          46.5811   16.4930  -25.7379 C.3     1  UNL1        0.0091
     10 C          46.2606   15.4593  -24.6400 C.3     1  UNL1        0.0227
     11 C          47.4434   14.5698  -24.2934 C.2     1  UNL1       -0.0398
     12 C          47.8535   13.6053  -25.1680 C.2     1  UNL1       -0.0076
     13 H          45.8375   16.4377  -29.0360 H       1  UNL1        0.2923
     14 C          48.9571   12.6819  -24.8266 C.ar    1  UNL1        0.0056
     15 C          50.2784   13.0144  -25.1304 C.ar    1  UNL1        0.0402
     16 C          51.3242   12.1293  -24.8176 C.ar    1  UNL1        0.1754
     17 C          51.0428   10.8972  -24.2020 C.ar    1  UNL1        0.2061
     18 C          49.7013   10.5613  -23.8802 C.ar    1  UNL1        0.1754
     19 C          48.6740   11.4738  -24.1852 C.ar    1  UNL1        0.0402
     20 O          52.6631   12.4326  -25.1141 O.3     1  UNL1       -0.4683
     21 C          53.3402   12.0275  -26.2995 C.3     1  UNL1        0.2526
     22 O          52.1417   10.0556  -23.9437 O.3     1  UNL1       -0.4654
     23 C          52.5112    8.8936  -24.6775 C.3     1  UNL1        0.2528
     24 O          49.4107    9.3315  -23.2690 O.3     1  UNL1       -0.4683
     25 C          49.4741    9.0802  -21.8686 C.3     1  UNL1        0.2526
     26 C          45.8375   12.3713  -31.3936 C.3     1  UNL1        0.2526
     27 O          45.2716   12.9681  -30.2310 O.3     1  UNL1       -0.4684
     28 C          48.0763   14.7302  -22.9156 C.3     1  UNL1        0.0487
     29 C          47.7458   13.5899  -21.9714 C.ar    1  UNL1       -0.0127
     30 C          46.4772   12.9831  -22.0420 C.ar    1  UNL1       -0.0035
     31 C          46.1226   11.9646  -21.1559 C.ar    1  UNL1       -0.0003
     32 C          47.0378   11.5156  -20.2053 C.ar    1  UNL1        0.0004
     33 C          48.3186   12.0663  -20.1560 C.ar    1  UNL1        0.0055
     34 C          48.6898   13.0862  -21.0415 C.ar    1  UNL1        0.0264
     35 I          50.7038   13.7522  -20.9259 I       1  UNL1       -0.0428
@<TRIPOS>BOND
     1    26    27    1
     2    27     1    1
     3     1     2   ar
     4     2     3   ar
     5     3     4   ar
     6     4     5   ar
     7     5     6   ar
     8     6     7    1
     9     5     8    1
    10     8     9    1
    11     9    10    1
    12    10    11    1
    13    11    28    1
    14    28    29    1
    15    29    30   ar
    16    30    31   ar
    17    31    32   ar
    18    32    33   ar
    19    33    34   ar
    20    34    35    1
    21    11    12    2
    22    12    14    1
    23    14    15   ar
    24    15    16   ar
    25    16    20    1
    26    20    21    1
    27    16    17   ar
    28    17    22    1
    29    22    23    1
    30    17    18   ar
    31    18    24    1
    32    24    25    1
    33    18    19   ar
    34     6     1   ar
    35    34    29   ar
    36    19    14   ar
    37    12     4    1
    38     7    13    1
@<TRIPOS>MOLECULE
*****
 35 38 0 0 0
SMALL
GASTEIGER

@<TRIPOS>ATOM
      1 C          50.3089   17.5106  -25.2565 C.ar    1  UNL1        0.1718
      2 C          50.8864   16.2313  -25.2689 C.ar    1  UNL1        0.0400
      3 C          50.1081   15.1086  -25.5366 C.ar    1  UNL1        0.0030
      4 C          48.7294   15.2290  -25.7659 C.ar    1  UNL1       -0.0015
      5 C          48.1210   16.5076  -25.6839 C.ar    1  UNL1        0.0145
      6 C          48.9331   17.6543  -25.4879 C.ar    1  UNL1        0.1636
      7 O          48.4169   18.9529  -25.5329 O.3     1  UNL1       -0.5031
      8 C          46.6147   16.6005  -25.7989 C.3     1  UNL1        0.0299
      9 C          46.1435   16.4044  -27.2472 C.3     1  UNL1        0.0091
     10 C          46.8336   15.2377  -27.9815 C.3     1  UNL1        0.0227
     11 C          47.0128   14.0056  -27.1094 C.2     1  UNL1       -0.0398
     12 C          47.9405   14.0053  -26.1080 C.2     1  UNL1       -0.0076
     13 H          47.4899   19.1808  -25.8643 H       1  UNL1        0.2923
     14 C          48.1829   12.7975  -25.2898 C.ar    1  UNL1        0.0056
     15 C          47.3787   12.5185  -24.1833 C.ar    1  UNL1        0.0402
     16 C          47.6194   11.3775  -23.3990 C.ar    1  UNL1        0.1754
     17 C          48.6798   10.5129  -23.7217 C.ar    1  UNL1        0.2061
     18 C          49.4918   10.7867  -24.8538 C.ar    1  UNL1        0.1754
     19 C          49.2173   11.9248  -25.6352 C.ar    1  UNL1        0.0402
     20 O          46.8313   11.0716  -22.2775 O.3     1  UNL1       -0.4683
     21 C          46.6392   11.9383  -21.1640 C.3     1  UNL1        0.2526
     22 O          48.8712    9.4056  -22.8732 O.3     1  UNL1       -0.4654
     23 C          49.6314    9.3802  -21.6704 C.3     1  UNL1        0.2528
     24 O          50.5552    9.9309  -25.1812 O.3     1  UNL1       -0.4683
     25 C          51.9068   10.1140  -24.7714 C.3     1  UNL1        0.2526
     26 C          52.3984   18.6722  -24.5124 C.3     1  UNL1        0.2526
     27 O          51.0710   18.6679  -25.0282 O.3     1  UNL1       -0.4684
     28 C          46.2006   12.7628  -27.4560 C.3     1  UNL1        0.0487
     29 C          46.1452   12.4832  -28.9460 C.ar    1  UNL1       -0.0127
     30 C          45.6010   13.4536  -29.8089 C.ar    1  UNL1       -0.0035
     31 C          45.4898   13.2092  -31.1787 C.ar    1  UNL1       -0.0003
     32 C          45.9464   12.0055  -31.7127 C.ar    1  UNL1        0.0004
     33 C          46.5391   11.0544  -30.8820 C.ar    1  UNL1        0.0055
     34 C          46.6610   11.2876  -29.5062 C.ar    1  UNL1        0.0264
     35 I          47.6826    9.8023  -28.3822 I       1  UNL1       -0.0428
@<TRIPOS>BOND
     1    26    27    1
     2    27     1    1
     3     1     2   ar
     4     2     3   ar
     5     3     4   ar
     6     4     5   ar
     7     5     6   ar
     8     6     7    1
     9     5     8    1
    10     8     9    1
    11     9    10    1
    12    10    11    1
    13    11    28    1
    14    28    29    1
    15    29    30   ar
    16    30    31   ar
    17    31    32   ar
    18    32    33   ar
    19    33    34   ar
    20    34    35    1
    21    11    12    2
    22    12    14    1
    23    14    15   ar
    24    15    16   ar
    25    16    20    1
    26    20    21    1
    27    16    17   ar
    28    17    22    1
    29    22    23    1
    30    17    18   ar
    31    18    24    1
    32    24    25    1
    33    18    19   ar
    34     6     1   ar
    35    34    29   ar
    36    19    14   ar
    37    12     4    1
    38     7    13    1
@<TRIPOS>MOLECULE
*****
 35 38 0 0 0
SMALL
GASTEIGER

@<TRIPOS>ATOM
      1 C          50.3391   17.5424  -25.2651 C.ar    1  UNL1        0.1718
      2 C          50.9166   16.2630  -25.2696 C.ar    1  UNL1        0.0400
      3 C          50.1376   15.1383  -25.5271 C.ar    1  UNL1        0.0030
      4 C          48.7584   15.2571  -25.7537 C.ar    1  UNL1       -0.0015
      5 C          48.1501   16.5362  -25.6795 C.ar    1  UNL1        0.0145
      6 C          48.9627   17.6844  -25.4941 C.ar    1  UNL1        0.1636
      7 O          48.4463   18.9825  -25.5472 O.3     1  UNL1       -0.5031
      8 C          46.6435   16.6282  -25.7913 C.3     1  UNL1        0.0299
      9 C          46.1687   16.4215  -27.2370 C.3     1  UNL1        0.0091
     10 C          46.8569   15.2495  -27.9644 C.3     1  UNL1        0.0227
     11 C          47.0384   14.0238  -27.0838 C.2     1  UNL1       -0.0398
     12 C          47.9686   14.0309  -26.0848 C.2     1  UNL1       -0.0076
     13 H          47.5185   19.2080  -25.8779 H       1  UNL1        0.2923
     14 C          48.2131   12.8290  -25.2584 C.ar    1  UNL1        0.0056
     15 C          49.2555   11.9547  -25.5709 C.ar    1  UNL1        0.0402
     16 C          49.4773   10.8059  -24.7924 C.ar    1  UNL1        0.1754
     17 C          48.6428   10.5269  -23.6961 C.ar    1  UNL1        0.2061
     18 C          47.5895   11.4207  -23.3678 C.ar    1  UNL1        0.1754
     19 C          47.4009   12.5750  -24.1507 C.ar    1  UNL1        0.0402
     20 O          50.5145    9.9047  -25.0834 O.3     1  UNL1       -0.4683
     21 C          51.8888   10.1309  -24.7866 C.3     1  UNL1        0.2526
     22 O          48.9144    9.3444  -22.9816 O.3     1  UNL1       -0.4654
     23 C          49.5611    9.2466  -21.7176 C.3     1  UNL1        0.2528
     24 O          46.7489   11.1480  -22.2773 O.3     1  UNL1       -0.4683
     25 C          46.6873   11.9182  -21.0809 C.3     1  UNL1        0.2526
     26 C          52.4202   18.7113  -24.5091 C.3     1  UNL1        0.2526
     27 O          51.1018   18.7013  -25.0472 O.3     1  UNL1       -0.4684
     28 C          46.2253   12.7785  -27.4192 C.3     1  UNL1        0.0487
     29 C          46.1608   12.4915  -28.9074 C.ar    1  UNL1       -0.0127
     30 C          45.6056   13.4550  -29.7710 C.ar    1  UNL1       -0.0035
     31 C          45.4860   13.2035  -31.1388 C.ar    1  UNL1       -0.0003
     32 C          45.9450   11.9996  -31.6704 C.ar    1  UNL1        0.0004
     33 C          46.5485   11.0555  -30.8394 C.ar    1  UNL1        0.0055
     34 C          46.6789   11.2959  -29.4656 C.ar    1  UNL1        0.0264
     35 I          47.7161    9.8212  -28.3419 I       1  UNL1       -0.0428
@<TRIPOS>BOND
     1    26    27    1
     2    27     1    1
     3     1     2   ar
     4     2     3   ar
     5     3     4   ar
     6     4     5   ar
     7     5     6   ar
     8     6     7    1
     9     5     8    1
    10     8     9    1
    11     9    10    1
    12    10    11    1
    13    11    28    1
    14    28    29    1
    15    29    30   ar
    16    30    31   ar
    17    31    32   ar
    18    32    33   ar
    19    33    34   ar
    20    34    35    1
    21    11    12    2
    22    12    14    1
    23    14    15   ar
    24    15    16   ar
    25    16    20    1
    26    20    21    1
    27    16    17   ar
    28    17    22    1
    29    22    23    1
    30    17    18   ar
    31    18    24    1
    32    24    25    1
    33    18    19   ar
    34     6     1   ar
    35    34    29   ar
    36    19    14   ar
    37    12     4    1
    38     7    13    1
@<TRIPOS>MOLECULE
*****
 35 38 0 0 0
SMALL
GASTEIGER

@<TRIPOS>ATOM
      1 C          45.4867   12.1017  -19.4070 C.ar    1  UNL1        0.1718
      2 C          44.9629   12.1122  -20.7092 C.ar    1  UNL1        0.0400
      3 C          45.7738   11.8053  -21.7983 C.ar    1  UNL1        0.0030
      4 C          47.1342   11.5125  -21.6203 C.ar    1  UNL1       -0.0015
      5 C          47.6921   11.5701  -20.3176 C.ar    1  UNL1        0.0145
      6 C          46.8432   11.8070  -19.2059 C.ar    1  UNL1        0.1636
      7 O          47.3024   11.7420  -17.8870 O.3     1  UNL1       -0.5031
      8 C          49.1863   11.3855  -20.1621 C.3     1  UNL1        0.0299
      9 C          49.5973    9.9163  -20.3367 C.3     1  UNL1        0.0091
     10 C          48.9228    9.2113  -21.5304 C.3     1  UNL1        0.0227
     11 C          48.8357   10.0870  -22.7698 C.2     1  UNL1       -0.0398
     12 C          47.9564   11.1305  -22.8098 C.2     1  UNL1       -0.0076
     13 H          48.2026   11.3687  -17.6203 H       1  UNL1        0.2923
     14 C          47.8028   11.9554  -24.0276 C.ar    1  UNL1        0.0056
     15 C          48.3756   13.2264  -24.0989 C.ar    1  UNL1        0.0402
     16 C          48.2166   14.0142  -25.2518 C.ar    1  UNL1        0.1754
     17 C          47.4709   13.5272  -26.3393 C.ar    1  UNL1        0.2061
     18 C          46.8976   12.2299  -26.2752 C.ar    1  UNL1        0.1754
     19 C          47.0885   11.4525  -25.1175 C.ar    1  UNL1        0.0402
     20 O          48.7767   15.2983  -25.3527 O.3     1  UNL1       -0.4683
     21 C          50.0978   15.5702  -25.8093 C.3     1  UNL1        0.2526
     22 O          47.3368   14.3861  -27.4471 O.3     1  UNL1       -0.4654
     23 C          46.2346   15.2410  -27.7292 C.3     1  UNL1        0.2528
     24 O          46.1481   11.7371  -27.3549 O.3     1  UNL1       -0.4683
     25 C          46.6917   11.0689  -28.4891 C.3     1  UNL1        0.2526
     26 C          43.2673   12.2838  -18.2625 C.3     1  UNL1        0.2526
     27 O          44.6887   12.3687  -18.2826 O.3     1  UNL1       -0.4684
     28 C          49.6818    9.6993  -23.9774 C.3     1  UNL1        0.0487
     29 C          50.6799   10.7704  -24.3746 C.ar    1  UNL1       -0.0127
     30 C          51.2480   11.5860  -23.3775 C.ar    1  UNL1       -0.0035
     31 C          52.1320   12.6128  -23.7128 C.ar    1  UNL1       -0.0003
     32 C          52.4857   12.8229  -25.0445 C.ar    1  UNL1        0.0004
     33 C          51.9764   11.9900  -26.0410 C.ar    1  UNL1        0.0055
     34 C          51.0914   10.9531  -25.7188 C.ar    1  UNL1        0.0264
     35 I          50.4837    9.6966  -27.3204 I       1  UNL1       -0.0428
@<TRIPOS>BOND
     1    26    27    1
     2    27     1    1
     3     1     2   ar
     4     2     3   ar
     5     3     4   ar
     6     4     5   ar
     7     5     6   ar
     8     6     7    1
     9     5     8    1
    10     8     9    1
    11     9    10    1
    12    10    11    1
    13    11    28    1
    14    28    29    1
    15    29    30   ar
    16    30    31   ar
    17    31    32   ar
    18    32    33   ar
    19    33    34   ar
    20    34    35    1
    21    11    12    2
    22    12    14    1
    23    14    15   ar
    24    15    16   ar
    25    16    20    1
    26    20    21    1
    27    16    17   ar
    28    17    22    1
    29    22    23    1
    30    17    18   ar
    31    18    24    1
    32    24    25    1
    33    18    19   ar
    34     6     1   ar
    35    34    29   ar
    36    19    14   ar
    37    12     4    1
    38     7    13    1
@<TRIPOS>MOLECULE
*****
 35 38 0 0 0
SMALL
GASTEIGER

@<TRIPOS>ATOM
      1 C          45.4283   12.0936  -19.3881 C.ar    1  UNL1        0.1718
      2 C          44.9057   12.1259  -20.6905 C.ar    1  UNL1        0.0400
      3 C          45.7173   11.8353  -21.7836 C.ar    1  UNL1        0.0030
      4 C          47.0770   11.5377  -21.6092 C.ar    1  UNL1       -0.0015
      5 C          47.6338   11.5734  -20.3052 C.ar    1  UNL1        0.0145
      6 C          46.7842   11.7937  -19.1906 C.ar    1  UNL1        0.1636
      7 O          47.2420   11.7068  -17.8725 O.3     1  UNL1       -0.5031
      8 C          49.1275   11.3841  -20.1513 C.3     1  UNL1        0.0299
      9 C          49.5365    9.9173  -20.3492 C.3     1  UNL1        0.0091
     10 C          48.8621    9.2327  -21.5546 C.3     1  UNL1        0.0227
     11 C          48.7775   10.1283  -22.7799 C.2     1  UNL1       -0.0398
     12 C          47.8997   11.1736  -22.8039 C.2     1  UNL1       -0.0076
     13 H          48.1415   11.3278  -17.6110 H       1  UNL1        0.2923
     14 C          47.7485   12.0182  -24.0084 C.ar    1  UNL1        0.0056
     15 C          47.0279   11.5565  -25.1113 C.ar    1  UNL1        0.0402
     16 C          46.8972   12.3552  -26.2601 C.ar    1  UNL1        0.1754
     17 C          47.5000   13.6243  -26.3071 C.ar    1  UNL1        0.2061
     18 C          48.2229   14.1022  -25.1824 C.ar    1  UNL1        0.1754
     19 C          48.3219   13.2916  -24.0361 C.ar    1  UNL1        0.0402
     20 O          46.1827   11.9176  -27.3873 O.3     1  UNL1       -0.4683
     21 C          46.6965   11.0305  -28.3757 C.3     1  UNL1        0.2526
     22 O          47.3442   14.3527  -27.5020 O.3     1  UNL1       -0.4654
     23 C          46.3701   15.3569  -27.7624 C.3     1  UNL1        0.2528
     24 O          48.8313   15.3666  -25.2219 O.3     1  UNL1       -0.4683
     25 C          50.0856   15.6506  -25.8338 C.3     1  UNL1        0.2526
     26 C          43.2088   12.2496  -18.2400 C.3     1  UNL1        0.2526
     27 O          44.6296   12.3436  -18.2604 O.3     1  UNL1       -0.4684
     28 C          49.6241    9.7588  -23.9928 C.3     1  UNL1        0.0487
     29 C          50.6344   10.8282  -24.3627 C.ar    1  UNL1       -0.0127
     30 C          51.1757   11.6437  -23.3505 C.ar    1  UNL1       -0.0035
     31 C          52.0702   12.6690  -23.6617 C.ar    1  UNL1       -0.0003
     32 C          52.4612   12.8777  -24.9832 C.ar    1  UNL1        0.0004
     33 C          51.9787   12.0448  -25.9929 C.ar    1  UNL1        0.0055
     34 C          51.0837   11.0095  -25.6949 C.ar    1  UNL1        0.0264
     35 I          50.5191    9.7528  -27.3121 I       1  UNL1       -0.0428
@<TRIPOS>BOND
     1    26    27    1
     2    27     1    1
     3     1     2   ar
     4     2     3   ar
     5     3     4   ar
     6     4     5   ar
     7     5     6   ar
     8     6     7    1
     9     5     8    1
    10     8     9    1
    11     9    10    1
    12    10    11    1
    13    11    28    1
    14    28    29    1
    15    29    30   ar
    16    30    31   ar
    17    31    32   ar
    18    32    33   ar
    19    33    34   ar
    20    34    35    1
    21    11    12    2
    22    12    14    1
    23    14    15   ar
    24    15    16   ar
    25    16    20    1
    26    20    21    1
    27    16    17   ar
    28    17    22    1
    29    22    23    1
    30    17    18   ar
    31    18    24    1
    32    24    25    1
    33    18    19   ar
    34     6     1   ar
    35    34    29   ar
    36    19    14   ar
    37    12     4    1
    38     7    13    1
@<TRIPOS>MOLECULE
*****
 35 38 0 0 0
SMALL
GASTEIGER

@<TRIPOS>ATOM
      1 C          47.9423   11.2596  -20.8151 C.ar    1  UNL1        0.1718
      2 C          49.2478   11.2578  -21.3309 C.ar    1  UNL1        0.0400
      3 C          49.4912   11.6772  -22.6359 C.ar    1  UNL1        0.0030
      4 C          48.4365   12.0773  -23.4698 C.ar    1  UNL1       -0.0015
      5 C          47.1053   12.0142  -22.9844 C.ar    1  UNL1        0.0145
      6 C          46.8735   11.6604  -21.6301 C.ar    1  UNL1        0.1636
      7 O          45.6019   11.7101  -21.0512 O.3     1  UNL1       -0.5031
      8 C          45.9718   12.3189  -23.9400 C.3     1  UNL1        0.0299
      9 C          45.8590   13.8238  -24.2242 C.3     1  UNL1        0.0091
     10 C          47.2096   14.5170  -24.4924 C.3     1  UNL1        0.0227
     11 C          48.1446   13.6886  -25.3584 C.2     1  UNL1       -0.0398
     12 C          48.7472   12.5765  -24.8449 C.2     1  UNL1       -0.0076
     13 H          44.8009   12.1477  -21.4848 H       1  UNL1        0.2923
     14 C          49.7137   11.7921  -25.6436 C.ar    1  UNL1        0.0056
     15 C          49.3043   10.6421  -26.3210 C.ar    1  UNL1        0.0402
     16 C          50.2273    9.8905  -27.0680 C.ar    1  UNL1        0.1754
     17 C          51.5735   10.2903  -27.1304 C.ar    1  UNL1        0.2061
     18 C          51.9907   11.4664  -26.4531 C.ar    1  UNL1        0.1754
     19 C          51.0428   12.2130  -25.7286 C.ar    1  UNL1        0.0402
     20 O          49.8478    8.7269  -27.7569 O.3     1  UNL1       -0.4683
     21 C          49.0466    8.7096  -28.9340 C.3     1  UNL1        0.2526
     22 O          52.4407    9.4711  -27.8784 O.3     1  UNL1       -0.4654
     23 C          52.9461    9.7380  -29.1817 C.3     1  UNL1        0.2528
     24 O          53.3338   11.8709  -26.5068 O.3     1  UNL1       -0.4683
     25 C          54.1824   12.0377  -25.3753 C.3     1  UNL1        0.2526
     26 C          47.9506   11.6764  -18.3463 C.3     1  UNL1        0.2526
     27 O          47.6655   10.8797  -19.4917 O.3     1  UNL1       -0.4684
     28 C          48.4524   14.1962  -26.7628 C.3     1  UNL1        0.0487
     29 C          48.8860   15.6496  -26.7896 C.ar    1  UNL1       -0.0127
     30 C          50.2163   15.9773  -26.4650 C.ar    1  UNL1       -0.0035
     31 C          50.6362   17.3081  -26.4321 C.ar    1  UNL1       -0.0003
     32 C          49.7438   18.3301  -26.7511 C.ar    1  UNL1        0.0004
     33 C          48.4368   18.0219  -27.1291 C.ar    1  UNL1        0.0055
     34 C          48.0027   16.6908  -27.1704 C.ar    1  UNL1        0.0264
     35 I          46.0235   16.3629  -27.8696 I       1  UNL1       -0.0428
@<TRIPOS>BOND
     1    26    27    1
     2    27     1    1
     3     1     2   ar
     4     2     3   ar
     5     3     4   ar
     6     4     5   ar
     7     5     6   ar
     8     6     7    1
     9     5     8    1
    10     8     9    1
    11     9    10    1
    12    10    11    1
    13    11    28    1
    14    28    29    1
    15    29    30   ar
    16    30    31   ar
    17    31    32   ar
    18    32    33   ar
    19    33    34   ar
    20    34    35    1
    21    11    12    2
    22    12    14    1
    23    14    15   ar
    24    15    16   ar
    25    16    20    1
    26    20    21    1
    27    16    17   ar
    28    17    22    1
    29    22    23    1
    30    17    18   ar
    31    18    24    1
    32    24    25    1
    33    18    19   ar
    34     6     1   ar
    35    34    29   ar
    36    19    14   ar
    37    12     4    1
    38     7    13    1
