@<TRIPOS>MOLECULE
*****
 30 32 0 0 0
SMALL
GASTEIGER

@<TRIPOS>ATOM
      1 O         -15.8441    1.3993  -11.7736 O.3     1  UNL1       -0.4750
      2 C         -15.2556    1.2360  -13.0373 C.ar    1  UNL1        0.1385
      3 C         -15.8383    0.3220  -13.9224 C.ar    1  UNL1        0.0366
      4 C         -15.2807    0.0992  -15.1838 C.ar    1  UNL1       -0.0011
      5 C         -14.1327    0.8000  -15.5840 C.ar    1  UNL1       -0.0206
      6 C         -13.5511    1.7244  -14.7026 C.ar    1  UNL1       -0.0011
      7 C         -14.1101    1.9473  -13.4407 C.ar    1  UNL1        0.0366
      8 C         -13.5058    0.5379  -16.9295 C.3     1  UNL1        0.0468
      9 C         -14.5701    0.4113  -18.0312 C.3     1  UNL1        0.1369
     10 S         -14.6934    1.9725  -19.0066 S.3     1  UNL1       -0.0482
     11 C         -14.1693    1.1074  -20.4767 C.2     1  UNL1        0.2792
     12 O         -13.9798    1.6931  -21.5743 O.2     1  UNL1       -0.2625
     13 N         -13.9710   -0.2825  -20.3283 N.am    1  UNL1       -0.2460
     14 C         -14.2094   -0.6820  -18.9925 C.2     1  UNL1        0.2392
     15 O         -14.1330   -1.8903  -18.6446 O.2     1  UNL1       -0.2737
     16 H         -13.6894   -0.9277  -21.0997 H       1  UNL1        0.1583
     17 C         -17.2351    1.2529  -11.4776 C.3     1  UNL1        0.2117
     18 C         -17.9607    2.6056  -11.4758 C.3     1  UNL1        0.0931
     19 C         -22.2132    2.0317  -11.2915 C.ar    1  UNL1        0.0019
     20 C         -21.4982    1.6284  -12.4325 C.ar    1  UNL1       -0.0014
     21 C         -20.1210    1.8194  -12.5143 C.ar    1  UNL1        0.0145
     22 C         -19.4515    2.4269  -11.4510 C.ar    1  UNL1        0.0629
     23 N         -20.1464    2.7887  -10.3410 N.ar    1  UNL1       -0.2433
     24 CA        -21.4894    2.6058  -10.2105 C.ar    1  UNL1        0.1521
     25 C         -22.1001    3.0216   -8.9273 C.2     1  UNL1        0.3556
     26 O         -22.3785    2.1444   -8.0660 O.2     1  UNL1       -0.2434
     27 OXT       -22.4301    4.3478   -8.6697 O.3     1  UNL1       -0.4761
     28 HXT       -22.8673    4.6156   -7.7961 H       1  UNL1        0.2955
     29 C         -24.4011    2.8169  -12.2240 C.3     1  UNL1        0.0051
     30 C         -23.7111    1.8295  -11.2860 C.3     1  UNL1        0.0281
@<TRIPOS>BOND
     1    29    30    1
     2    30    19    1
     3    19    20   ar
     4    20    21   ar
     5    21    22   ar
     6    22    18    1
     7    18    17    1
     8    17     1    1
     9     1     2    1
    10     2     3   ar
    11     3     4   ar
    12     4     5   ar
    13     5     8    1
    14     8     9    1
    15     9    10    1
    16    10    11    1
    17    11    12    2
    18    11    13   am
    19    13    14   am
    20    14    15    2
    21     5     6   ar
    22     6     7   ar
    23    22    23   ar
    24    23    24   ar
    25    24    25    1
    26    25    26    2
    27    25    27    1
    28    24    19   ar
    29     7     2   ar
    30    14     9    1
    31    13    16    1
    32    27    28    1
@<TRIPOS>MOLECULE
*****
 30 32 0 0 0
SMALL
GASTEIGER

@<TRIPOS>ATOM
      1 O         -21.6009  -11.2297  -15.7254 O.3     1  UNL1       -0.4750
      2 C         -21.5427  -10.9730  -14.3468 C.ar    1  UNL1        0.1385
      3 C         -21.5969   -9.6408  -13.9217 C.ar    1  UNL1        0.0366
      4 C         -21.5171   -9.3239  -12.5634 C.ar    1  UNL1       -0.0011
      5 C         -21.3929  -10.3416  -11.6053 C.ar    1  UNL1       -0.0206
      6 C         -21.3478  -11.6794  -12.0273 C.ar    1  UNL1       -0.0011
      7 C         -21.4284  -11.9957  -13.3867 C.ar    1  UNL1        0.0366
      8 C         -21.2704  -10.0042  -10.1414 C.3     1  UNL1        0.0468
      9 C         -20.1086   -9.0314   -9.8833 C.3     1  UNL1        0.1369
     10 S         -20.6797   -7.5708   -8.9115 S.3     1  UNL1       -0.0482
     11 C         -19.5902   -8.0230   -7.5725 C.2     1  UNL1        0.2792
     12 O         -19.5575   -7.3910   -6.4848 O.2     1  UNL1       -0.2625
     13 N         -18.7681   -9.1464   -7.8080 N.am    1  UNL1       -0.2460
     14 C         -19.0279   -9.6974   -9.0846 C.2     1  UNL1        0.2392
     15 O         -18.3746  -10.6825   -9.5202 O.2     1  UNL1       -0.2737
     16 H         -18.0630   -9.5179   -7.1332 H       1  UNL1        0.1583
     17 C         -21.9677  -10.2848  -16.7336 C.3     1  UNL1        0.2117
     18 C         -23.3799  -10.5501  -17.2737 C.3     1  UNL1        0.0931
     19 C         -25.6474  -13.2009  -14.7679 C.ar    1  UNL1        0.0019
     20 C         -25.6937  -11.8135  -14.5470 C.ar    1  UNL1       -0.0014
     21 C         -24.9541  -10.9409  -15.3417 C.ar    1  UNL1        0.0145
     22 C         -24.1533  -11.4579  -16.3611 C.ar    1  UNL1        0.0629
     23 N         -24.1358  -12.7979  -16.5848 N.ar    1  UNL1       -0.2433
     24 CA        -24.8553  -13.6860  -15.8446 C.ar    1  UNL1        0.1521
     25 C         -24.7586  -15.1123  -16.2304 C.2     1  UNL1        0.3556
     26 O         -23.7280  -15.7660  -15.9154 O.2     1  UNL1       -0.2434
     27 OXT       -25.7482  -15.7354  -16.9831 O.3     1  UNL1       -0.4761
     28 HXT       -25.6595  -16.7061  -17.2587 H       1  UNL1        0.2955
     29 C         -25.8370  -14.1133  -12.4431 C.3     1  UNL1        0.0051
     30 C         -26.4447  -14.0923  -13.8436 C.3     1  UNL1        0.0281
@<TRIPOS>BOND
     1    29    30    1
     2    30    19    1
     3    19    20   ar
     4    20    21   ar
     5    21    22   ar
     6    22    18    1
     7    18    17    1
     8    17     1    1
     9     1     2    1
    10     2     3   ar
    11     3     4   ar
    12     4     5   ar
    13     5     8    1
    14     8     9    1
    15     9    10    1
    16    10    11    1
    17    11    12    2
    18    11    13   am
    19    13    14   am
    20    14    15    2
    21     5     6   ar
    22     6     7   ar
    23    22    23   ar
    24    23    24   ar
    25    24    25    1
    26    25    26    2
    27    25    27    1
    28    24    19   ar
    29     7     2   ar
    30    14     9    1
    31    13    16    1
    32    27    28    1
@<TRIPOS>MOLECULE
*****
 30 32 0 0 0
SMALL
GASTEIGER

@<TRIPOS>ATOM
      1 O         -21.4845  -11.6081  -15.8708 O.3     1  UNL1       -0.4750
      2 C         -21.5180  -11.2135  -14.5243 C.ar    1  UNL1        0.1385
      3 C         -21.5170  -12.2127  -13.5446 C.ar    1  UNL1        0.0366
      4 C         -21.5756  -11.8797  -12.1891 C.ar    1  UNL1       -0.0011
      5 C         -21.6245  -10.5346  -11.7923 C.ar    1  UNL1       -0.0206
      6 C         -21.6160   -9.5295  -12.7717 C.ar    1  UNL1       -0.0011
      7 C         -21.5567   -9.8636  -14.1279 C.ar    1  UNL1        0.0366
      8 C         -21.7239  -10.1700  -10.3330 C.3     1  UNL1        0.0468
      9 C         -22.9453   -9.2785  -10.0576 C.3     1  UNL1        0.1369
     10 S         -24.4919  -10.0779  -10.6682 S.3     1  UNL1       -0.0482
     11 C         -25.1259  -10.1477   -9.0016 C.2     1  UNL1        0.2792
     12 O         -26.2242  -10.6929   -8.7185 O.2     1  UNL1       -0.2625
     13 N         -24.3092   -9.5567   -8.0132 N.am    1  UNL1       -0.2460
     14 C         -23.1163   -9.0553   -8.5844 C.2     1  UNL1        0.2392
     15 O         -22.2602   -8.4468   -7.8889 O.2     1  UNL1       -0.2737
     16 H         -24.5536   -9.4960   -6.9997 H       1  UNL1        0.1583
     17 C         -21.7731  -10.7690  -16.9918 C.3     1  UNL1        0.2117
     18 C         -23.2830  -10.5555  -17.1675 C.3     1  UNL1        0.0931
     19 C         -25.5967  -13.1991  -14.6966 C.ar    1  UNL1        0.0019
     20 C         -25.6214  -11.8138  -14.4595 C.ar    1  UNL1       -0.0014
     21 C         -24.8666  -10.9438  -15.2427 C.ar    1  UNL1        0.0145
     22 C         -24.0723  -11.4616  -16.2668 C.ar    1  UNL1        0.0629
     23 N         -24.0757  -12.7989  -16.5062 N.ar    1  UNL1       -0.2433
     24 CA        -24.8105  -13.6841  -15.7776 C.ar    1  UNL1        0.1521
     25 C         -24.7357  -15.1071  -16.1799 C.2     1  UNL1        0.3556
     26 O         -23.7119  -15.7781  -15.8796 O.2     1  UNL1       -0.2434
     27 OXT       -25.7389  -15.7084  -16.9325 O.3     1  UNL1       -0.4761
     28 HXT       -25.6652  -16.6771  -17.2195 H       1  UNL1        0.2955
     29 C         -25.8651  -14.0550  -12.3581 C.3     1  UNL1        0.0051
     30 C         -26.4096  -14.0885  -13.7840 C.3     1  UNL1        0.0281
@<TRIPOS>BOND
     1    29    30    1
     2    30    19    1
     3    19    20   ar
     4    20    21   ar
     5    21    22   ar
     6    22    18    1
     7    18    17    1
     8    17     1    1
     9     1     2    1
    10     2     3   ar
    11     3     4   ar
    12     4     5   ar
    13     5     8    1
    14     8     9    1
    15     9    10    1
    16    10    11    1
    17    11    12    2
    18    11    13   am
    19    13    14   am
    20    14    15    2
    21     5     6   ar
    22     6     7   ar
    23    22    23   ar
    24    23    24   ar
    25    24    25    1
    26    25    26    2
    27    25    27    1
    28    24    19   ar
    29     7     2   ar
    30    14     9    1
    31    13    16    1
    32    27    28    1
@<TRIPOS>MOLECULE
*****
 30 32 0 0 0
SMALL
GASTEIGER

@<TRIPOS>ATOM
      1 O         -12.9481    0.1860  -16.2650 O.3     1  UNL1       -0.4750
      2 C         -13.7746    0.5838  -15.2027 C.ar    1  UNL1        0.1385
      3 C         -14.8968   -0.1999  -14.9117 C.ar    1  UNL1        0.0366
      4 C         -15.7694    0.1617  -13.8823 C.ar    1  UNL1       -0.0011
      5 C         -15.5237    1.3126  -13.1180 C.ar    1  UNL1       -0.0206
      6 C         -14.3941    2.0959  -13.4008 C.ar    1  UNL1       -0.0011
      7 C         -13.5210    1.7329  -14.4306 C.ar    1  UNL1        0.0366
      8 C         -16.4805    1.7276  -12.0297 C.3     1  UNL1        0.0468
      9 C         -17.7283    2.4134  -12.6087 C.3     1  UNL1        0.1369
     10 S         -19.0863    1.1921  -12.8700 S.3     1  UNL1       -0.0482
     11 C         -20.1028    2.0531  -11.6826 C.2     1  UNL1        0.2792
     12 O         -21.2394    1.6371  -11.3380 O.2     1  UNL1       -0.2625
     13 N         -19.5450    3.2331  -11.1442 N.am    1  UNL1       -0.2460
     14 C         -18.2475    3.4544  -11.6620 C.2     1  UNL1        0.2392
     15 O         -17.5810    4.4766  -11.3494 O.2     1  UNL1       -0.2737
     16 H         -20.0256    3.8581  -10.4594 H       1  UNL1        0.1583
     17 C         -13.0143    0.6845  -17.6033 C.3     1  UNL1        0.2117
     18 C         -13.7929   -0.2647  -18.5248 C.3     1  UNL1        0.0931
     19 C         -16.1570    1.8726  -21.4041 C.ar    1  UNL1        0.0019
     20 C         -15.6670    2.5357  -20.2657 C.ar    1  UNL1       -0.0014
     21 C         -14.9102    1.8543  -19.3154 C.ar    1  UNL1        0.0145
     22 C         -14.6471    0.4959  -19.4980 C.ar    1  UNL1        0.0629
     23 N         -15.1017   -0.1303  -20.6147 N.ar    1  UNL1       -0.2433
     24 CA        -15.8300    0.4996  -21.5776 C.ar    1  UNL1        0.1521
     25 C         -16.2262   -0.3084  -22.7533 C.2     1  UNL1        0.3556
     26 O         -15.3726   -0.5513  -23.6484 O.2     1  UNL1       -0.2434
     27 OXT       -17.5311   -0.7572  -22.9267 O.3     1  UNL1       -0.4761
     28 HXT       -17.7938   -1.2910  -23.7466 H       1  UNL1        0.2955
     29 C         -17.5524    3.9284  -21.7194 C.3     1  UNL1        0.0051
     30 C         -17.0037    2.6634  -22.3749 C.3     1  UNL1        0.0281
@<TRIPOS>BOND
     1    29    30    1
     2    30    19    1
     3    19    20   ar
     4    20    21   ar
     5    21    22   ar
     6    22    18    1
     7    18    17    1
     8    17     1    1
     9     1     2    1
    10     2     3   ar
    11     3     4   ar
    12     4     5   ar
    13     5     8    1
    14     8     9    1
    15     9    10    1
    16    10    11    1
    17    11    12    2
    18    11    13   am
    19    13    14   am
    20    14    15    2
    21     5     6   ar
    22     6     7   ar
    23    22    23   ar
    24    23    24   ar
    25    24    25    1
    26    25    26    2
    27    25    27    1
    28    24    19   ar
    29     7     2   ar
    30    14     9    1
    31    13    16    1
    32    27    28    1
@<TRIPOS>MOLECULE
*****
 30 32 0 0 0
SMALL
GASTEIGER

@<TRIPOS>ATOM
      1 O         -25.4855   -5.0388  -11.9877 O.3     1  UNL1       -0.4750
      2 C         -24.2934   -5.7354  -11.7357 C.ar    1  UNL1        0.1385
      3 C         -23.1295   -4.9909  -11.5133 C.ar    1  UNL1        0.0366
      4 C         -21.9091   -5.6308  -11.2832 C.ar    1  UNL1       -0.0011
      5 C         -21.8379   -7.0321  -11.2608 C.ar    1  UNL1       -0.0206
      6 C         -23.0049   -7.7819  -11.4740 C.ar    1  UNL1       -0.0011
      7 C         -24.2259   -7.1409  -11.7035 C.ar    1  UNL1        0.0366
      8 C         -20.5179   -7.7283  -11.0485 C.3     1  UNL1        0.0468
      9 C         -20.5977   -8.7485   -9.9016 C.3     1  UNL1        0.1369
     10 S         -19.6531  -10.2778  -10.3172 S.3     1  UNL1       -0.0482
     11 C         -18.5451   -9.9768   -8.9511 C.2     1  UNL1        0.2792
     12 O         -17.5470  -10.7066   -8.7169 O.2     1  UNL1       -0.2625
     13 N         -18.8555   -8.8569   -8.1495 N.am    1  UNL1       -0.2460
     14 C         -19.9955   -8.1849   -8.6489 C.2     1  UNL1        0.2392
     15 O         -20.4762   -7.1801   -8.0604 O.2     1  UNL1       -0.2737
     16 H         -18.3184   -8.5660   -7.3025 H       1  UNL1        0.1583
     17 C         -26.5691   -5.5073  -12.7942 C.3     1  UNL1        0.2117
     18 C         -26.1646   -5.6365  -14.2693 C.3     1  UNL1        0.0931
     19 C         -28.8900   -3.5319  -16.8364 C.ar    1  UNL1        0.0019
     20 C         -27.5106   -3.5081  -17.1053 C.ar    1  UNL1       -0.0014
     21 C         -26.6117   -4.1739  -16.2754 C.ar    1  UNL1        0.0145
     22 C         -27.0928   -4.8629  -15.1611 C.ar    1  UNL1        0.0629
     23 N         -28.4300   -4.9032  -14.9243 N.ar    1  UNL1       -0.2433
     24 CA        -29.3459   -4.2819  -15.7176 C.ar    1  UNL1        0.1521
     25 C         -30.7707   -4.4443  -15.3489 C.2     1  UNL1        0.3556
     26 O         -31.4582   -3.4212  -15.0854 O.2     1  UNL1       -0.2434
     27 OXT       -31.3565   -5.6998  -15.2273 O.3     1  UNL1       -0.4761
     28 HXT       -32.3268   -5.7975  -14.9533 H       1  UNL1        0.2955
     29 C         -29.0367   -2.2040  -18.9550 C.3     1  UNL1        0.0051
     30 C         -29.8045   -2.7557  -17.7562 C.3     1  UNL1        0.0281
@<TRIPOS>BOND
     1    29    30    1
     2    30    19    1
     3    19    20   ar
     4    20    21   ar
     5    21    22   ar
     6    22    18    1
     7    18    17    1
     8    17     1    1
     9     1     2    1
    10     2     3   ar
    11     3     4   ar
    12     4     5   ar
    13     5     8    1
    14     8     9    1
    15     9    10    1
    16    10    11    1
    17    11    12    2
    18    11    13   am
    19    13    14   am
    20    14    15    2
    21     5     6   ar
    22     6     7   ar
    23    22    23   ar
    24    23    24   ar
    25    24    25    1
    26    25    26    2
    27    25    27    1
    28    24    19   ar
    29     7     2   ar
    30    14     9    1
    31    13    16    1
    32    27    28    1
@<TRIPOS>MOLECULE
*****
 30 32 0 0 0
SMALL
GASTEIGER

@<TRIPOS>ATOM
      1 O         -25.8248  -14.3856  -15.0123 O.3     1  UNL1       -0.4750
      2 C         -25.5102  -13.2274  -14.2845 C.ar    1  UNL1        0.1385
      3 C         -25.0368  -13.3795  -12.9764 C.ar    1  UNL1        0.0366
      4 C         -24.7323  -12.2615  -12.1959 C.ar    1  UNL1       -0.0011
      5 C         -24.8871  -10.9691  -12.7199 C.ar    1  UNL1       -0.0206
      6 C         -25.3526  -10.8130  -14.0347 C.ar    1  UNL1       -0.0011
      7 C         -25.6564  -11.9322  -14.8154 C.ar    1  UNL1        0.0366
      8 C         -24.5943   -9.7585  -11.8709 C.3     1  UNL1        0.0468
      9 C         -23.9695  -10.1539  -10.5234 C.3     1  UNL1        0.1369
     10 S         -22.2998   -9.3942  -10.3265 S.3     1  UNL1       -0.0482
     11 C         -22.8775   -8.4652   -8.9167 C.2     1  UNL1        0.2792
     12 O         -22.1536   -7.6302   -8.3146 O.2     1  UNL1       -0.2625
     13 N         -24.2087   -8.7209   -8.5218 N.am    1  UNL1       -0.2460
     14 C         -24.8138   -9.6645   -9.3844 C.2     1  UNL1        0.2392
     15 O         -25.9896  -10.0727   -9.1903 O.2     1  UNL1       -0.2737
     16 H         -24.6809   -8.2761   -7.7034 H       1  UNL1        0.1583
     17 C         -24.9989  -14.9928  -16.0088 C.3     1  UNL1        0.2117
     18 C         -23.5191  -14.9865  -15.6009 C.3     1  UNL1        0.0931
     19 C         -21.8026  -11.0700  -16.0027 C.ar    1  UNL1        0.0019
     20 C         -21.3993  -11.9095  -14.9500 C.ar    1  UNL1       -0.0014
     21 C         -21.9556  -13.1773  -14.7972 C.ar    1  UNL1        0.0145
     22 C         -22.9304  -13.6084  -15.6983 C.ar    1  UNL1        0.0629
     23 N         -23.2943  -12.8010  -16.7286 N.ar    1  UNL1       -0.2433
     24 CA        -22.7652  -11.5620  -16.9266 C.ar    1  UNL1        0.1521
     25 C         -23.2385  -10.8138  -18.1133 C.2     1  UNL1        0.3556
     26 O         -23.5497   -9.5985  -17.9903 O.2     1  UNL1       -0.2434
     27 OXT       -23.4061  -11.4308  -19.3484 O.3     1  UNL1       -0.4761
     28 HXT       -23.7512  -10.9122  -20.1472 H       1  UNL1        0.2955
     29 C         -21.7904   -8.7570  -15.0419 C.3     1  UNL1        0.0051
     30 C         -21.1859   -9.6924  -16.0862 C.3     1  UNL1        0.0281
@<TRIPOS>BOND
     1    29    30    1
     2    30    19    1
     3    19    20   ar
     4    20    21   ar
     5    21    22   ar
     6    22    18    1
     7    18    17    1
     8    17     1    1
     9     1     2    1
    10     2     3   ar
    11     3     4   ar
    12     4     5   ar
    13     5     8    1
    14     8     9    1
    15     9    10    1
    16    10    11    1
    17    11    12    2
    18    11    13   am
    19    13    14   am
    20    14    15    2
    21     5     6   ar
    22     6     7   ar
    23    22    23   ar
    24    23    24   ar
    25    24    25    1
    26    25    26    2
    27    25    27    1
    28    24    19   ar
    29     7     2   ar
    30    14     9    1
    31    13    16    1
    32    27    28    1
@<TRIPOS>MOLECULE
*****
 30 32 0 0 0
SMALL
GASTEIGER

@<TRIPOS>ATOM
      1 O         -25.5774  -14.4595  -15.0902 O.3     1  UNL1       -0.4750
      2 C         -25.4305  -13.2697  -14.3604 C.ar    1  UNL1        0.1385
      3 C         -25.6323  -12.0572  -15.0293 C.ar    1  UNL1        0.0366
      4 C         -25.4744  -10.8410  -14.3602 C.ar    1  UNL1       -0.0011
      5 C         -25.1217  -10.8210  -13.0021 C.ar    1  UNL1       -0.0206
      6 C         -24.9278  -12.0352  -12.3256 C.ar    1  UNL1       -0.0011
      7 C         -25.0867  -13.2519  -12.9957 C.ar    1  UNL1        0.0366
      8 C         -24.9150   -9.5119  -12.2840 C.3     1  UNL1        0.0468
      9 C         -25.1839   -8.3141  -13.2088 C.3     1  UNL1        0.1369
     10 S         -26.8450   -7.5853  -12.8720 S.3     1  UNL1       -0.0482
     11 C         -26.0821   -6.0511  -12.3733 C.2     1  UNL1        0.2792
     12 O         -26.7464   -5.0787  -11.9299 O.2     1  UNL1       -0.2625
     13 N         -24.6770   -5.9993  -12.5002 N.am    1  UNL1       -0.2460
     14 C         -24.1723   -7.2307  -12.9796 C.2     1  UNL1        0.2392
     15 O         -22.9444   -7.3926  -13.2094 O.2     1  UNL1       -0.2737
     16 H         -24.0908   -5.1653  -12.2736 H       1  UNL1        0.1583
     17 C         -24.6682  -14.9470  -16.0799 C.3     1  UNL1        0.2117
     18 C         -23.2121  -14.8712  -15.5997 C.3     1  UNL1        0.0931
     19 C         -21.7563  -10.8353  -15.7975 C.ar    1  UNL1        0.0019
     20 C         -22.2071  -11.4778  -16.9635 C.ar    1  UNL1       -0.0014
     21 C         -22.6697  -12.7909  -16.9194 C.ar    1  UNL1        0.0145
     22 C         -22.6743  -13.4728  -15.7017 C.ar    1  UNL1        0.0629
     23 N         -22.2623  -12.8348  -14.5751 N.ar    1  UNL1       -0.2433
     24 CA        -21.8186  -11.5475  -14.5682 C.ar    1  UNL1        0.1521
     25 C         -21.4345  -10.9788  -13.2562 C.2     1  UNL1        0.3556
     26 O         -21.0294  -11.7510  -12.3461 O.2     1  UNL1       -0.2434
     27 OXT       -21.5649   -9.6219  -12.9804 O.3     1  UNL1       -0.4761
     28 HXT       -21.3186   -9.2491  -12.0712 H       1  UNL1        0.2955
     29 C         -22.3136   -8.4813  -16.4464 C.3     1  UNL1        0.0051
     30 C         -21.2315   -9.4234  -15.9245 C.3     1  UNL1        0.0281
@<TRIPOS>BOND
     1    29    30    1
     2    30    19    1
     3    19    20   ar
     4    20    21   ar
     5    21    22   ar
     6    22    18    1
     7    18    17    1
     8    17     1    1
     9     1     2    1
    10     2     3   ar
    11     3     4   ar
    12     4     5   ar
    13     5     8    1
    14     8     9    1
    15     9    10    1
    16    10    11    1
    17    11    12    2
    18    11    13   am
    19    13    14   am
    20    14    15    2
    21     5     6   ar
    22     6     7   ar
    23    22    23   ar
    24    23    24   ar
    25    24    25    1
    26    25    26    2
    27    25    27    1
    28    24    19   ar
    29     7     2   ar
    30    14     9    1
    31    13    16    1
    32    27    28    1
@<TRIPOS>MOLECULE
*****
 30 32 0 0 0
SMALL
GASTEIGER

@<TRIPOS>ATOM
      1 O         -25.0162   -6.2638  -13.3067 O.3     1  UNL1       -0.4750
      2 C         -24.7509   -7.6393  -13.3932 C.ar    1  UNL1        0.1385
      3 C         -25.4049   -8.4941  -12.4989 C.ar    1  UNL1        0.0366
      4 C         -25.1601   -9.8694  -12.5215 C.ar    1  UNL1       -0.0011
      5 C         -24.2613  -10.4130  -13.4520 C.ar    1  UNL1       -0.0206
      6 C         -23.6107   -9.5599  -14.3567 C.ar    1  UNL1       -0.0011
      7 C         -23.8567   -8.1839  -14.3339 C.ar    1  UNL1        0.0366
      8 C         -23.9661  -11.8911  -13.4578 C.3     1  UNL1        0.0468
      9 C         -24.3844  -12.5433  -14.7853 C.3     1  UNL1        0.1369
     10 S         -22.9188  -13.2366  -15.6660 S.3     1  UNL1       -0.0482
     11 C         -23.5996  -14.8802  -15.5263 C.2     1  UNL1        0.2792
     12 O         -22.9825  -15.9033  -15.9212 O.2     1  UNL1       -0.2625
     13 N         -24.8784  -14.9622  -14.9335 N.am    1  UNL1       -0.2460
     14 C         -25.3309  -13.6809  -14.5411 C.2     1  UNL1        0.2392
     15 O         -26.4698  -13.5147  -14.0291 O.2     1  UNL1       -0.2737
     16 H         -25.4173  -15.8474  -14.8048 H       1  UNL1        0.1583
     17 C         -24.9562   -5.4776  -12.1142 C.3     1  UNL1        0.2117
     18 C         -23.5096   -5.1324  -11.7338 C.3     1  UNL1        0.0931
     19 C         -21.3193   -8.5946  -10.4441 C.ar    1  UNL1        0.0019
     20 C         -20.8308   -7.8073  -11.5011 C.ar    1  UNL1       -0.0014
     21 C         -21.5354   -6.6890  -11.9407 C.ar    1  UNL1        0.0145
     22 C         -22.7437   -6.3580  -11.3257 C.ar    1  UNL1        0.0629
     23 N         -23.1945   -7.1089  -10.2870 N.ar    1  UNL1       -0.2433
     24 CA        -22.5309   -8.1994   -9.8132 C.ar    1  UNL1        0.1521
     25 C         -23.1315   -8.8968   -8.6533 C.2     1  UNL1        0.3556
     26 O         -23.4108  -10.1222   -8.7497 O.2     1  UNL1       -0.2434
     27 OXT       -23.4511   -8.2229   -7.4795 O.3     1  UNL1       -0.4761
     28 HXT       -23.8816   -8.7078   -6.7012 H       1  UNL1        0.2955
     29 C         -20.7232  -10.9521  -11.0439 C.3     1  UNL1        0.0051
     30 C         -20.5235   -9.8158  -10.0440 C.3     1  UNL1        0.0281
@<TRIPOS>BOND
     1    29    30    1
     2    30    19    1
     3    19    20   ar
     4    20    21   ar
     5    21    22   ar
     6    22    18    1
     7    18    17    1
     8    17     1    1
     9     1     2    1
    10     2     3   ar
    11     3     4   ar
    12     4     5   ar
    13     5     8    1
    14     8     9    1
    15     9    10    1
    16    10    11    1
    17    11    12    2
    18    11    13   am
    19    13    14   am
    20    14    15    2
    21     5     6   ar
    22     6     7   ar
    23    22    23   ar
    24    23    24   ar
    25    24    25    1
    26    25    26    2
    27    25    27    1
    28    24    19   ar
    29     7     2   ar
    30    14     9    1
    31    13    16    1
    32    27    28    1
@<TRIPOS>MOLECULE
*****
 30 32 0 0 0
SMALL
GASTEIGER

@<TRIPOS>ATOM
      1 O         -22.3815   -8.5248  -15.6276 O.3     1  UNL1       -0.4750
      2 C         -22.2804   -8.1114  -14.2901 C.ar    1  UNL1        0.1385
      3 C         -21.0037   -7.8751  -13.7681 C.ar    1  UNL1        0.0366
      4 C         -20.8407   -7.4869  -12.4360 C.ar    1  UNL1       -0.0011
      5 C         -21.9595   -7.3175  -11.6062 C.ar    1  UNL1       -0.0206
      6 C         -23.2421   -7.5444  -12.1289 C.ar    1  UNL1       -0.0011
      7 C         -23.4045   -7.9322  -13.4622 C.ar    1  UNL1        0.0366
      8 C         -21.7881   -6.9336  -10.1587 C.3     1  UNL1        0.0468
      9 C         -21.4914   -8.1610   -9.2823 C.3     1  UNL1        0.1369
     10 S         -21.2365   -9.6634  -10.3223 S.3     1  UNL1       -0.0482
     11 C         -19.5553   -9.7947   -9.7386 C.2     1  UNL1        0.2792
     12 O         -18.7573  -10.6682  -10.1671 O.2     1  UNL1       -0.2625
     13 N         -19.1716   -8.8458   -8.7661 N.am    1  UNL1       -0.2460
     14 C         -20.2347   -7.9546   -8.4901 C.2     1  UNL1        0.2392
     15 O         -20.1256   -7.0518   -7.6183 O.2     1  UNL1       -0.2737
     16 H         -18.2323   -8.8087   -8.3111 H       1  UNL1        0.1583
     17 C         -22.0030   -9.8072  -16.1336 C.3     1  UNL1        0.2117
     18 C         -23.1348  -10.4547  -16.9435 C.3     1  UNL1        0.0931
     19 C         -25.5060  -13.1901  -14.6322 C.ar    1  UNL1        0.0019
     20 C         -25.5147  -11.8187  -14.3242 C.ar    1  UNL1       -0.0014
     21 C         -24.7412  -10.9199  -15.0550 C.ar    1  UNL1        0.0145
     22 C         -23.9443  -11.3951  -16.0976 C.ar    1  UNL1        0.0629
     23 N         -23.9631  -12.7182  -16.4056 N.ar    1  UNL1       -0.2433
     24 CA        -24.7162  -13.6296  -15.7300 C.ar    1  UNL1        0.1521
     25 C         -24.6565  -15.0309  -16.2045 C.2     1  UNL1        0.3556
     26 O         -23.6261  -15.7170  -15.9674 O.2     1  UNL1       -0.2434
     27 OXT       -25.6823  -15.5930  -16.9568 O.3     1  UNL1       -0.4761
     28 HXT       -25.6192  -16.5463  -17.2936 H       1  UNL1        0.2955
     29 C         -25.9428  -14.0025  -12.3036 C.3     1  UNL1        0.0051
     30 C         -26.3391  -14.1142  -13.7737 C.3     1  UNL1        0.0281
@<TRIPOS>BOND
     1    29    30    1
     2    30    19    1
     3    19    20   ar
     4    20    21   ar
     5    21    22   ar
     6    22    18    1
     7    18    17    1
     8    17     1    1
     9     1     2    1
    10     2     3   ar
    11     3     4   ar
    12     4     5   ar
    13     5     8    1
    14     8     9    1
    15     9    10    1
    16    10    11    1
    17    11    12    2
    18    11    13   am
    19    13    14   am
    20    14    15    2
    21     5     6   ar
    22     6     7   ar
    23    22    23   ar
    24    23    24   ar
    25    24    25    1
    26    25    26    2
    27    25    27    1
    28    24    19   ar
    29     7     2   ar
    30    14     9    1
    31    13    16    1
    32    27    28    1
