@<TRIPOS>MOLECULE
*****
 39 43 0 0 0
SMALL
GASTEIGER

@<TRIPOS>ATOM
      1 C         -29.8856   50.0928   -9.5318 C.ar    1  UNL1        0.1316
      2 C         -30.9554   50.1130   -8.6121 C.ar    1  UNL1        0.0281
      3 C         -30.7712   50.5879   -7.3024 C.ar    1  UNL1        0.0691
      4 C         -29.5076   51.0507   -6.8979 C.ar    1  UNL1        0.2396
      5 N         -28.4985   51.0248   -7.8132 N.ar    1  UNL1       -0.1292
      6 C         -27.2173   51.4178   -7.7061 C.ar    1  UNL1        0.3134
      7 C         -26.6121   51.1840   -8.9329 C.ar    1  UNL1        0.1320
      8 N         -27.5116   50.6553   -9.7946 N.ar    1  UNL1       -0.2941
      9 C         -28.6465   50.5708   -9.0718 C.ar    1  UNL1        0.3120
     10 H         -27.3700   50.3930  -10.7329 H       1  UNL1        0.1718
     11 N         -30.3550   48.6315  -13.6042 N.3     1  UNL1       -0.2647
     12 C         -29.9391   50.0285  -13.3208 C.3     1  UNL1        0.0941
     13 C         -30.4383   50.5485  -11.9660 C.3     1  UNL1        0.1084
     14 N         -30.0765   49.6200  -10.8858 N.pl3   1  UNL1       -0.2988
     15 C         -29.9478   48.1884  -11.1902 C.3     1  UNL1        0.1084
     16 C         -30.7738   47.8349  -12.4290 C.3     1  UNL1        0.0941
     17 C         -31.2821   48.5025  -14.7497 C.3     1  UNL1        0.1199
     18 C         -30.4174   45.7616  -16.9062 C.ar    1  UNL1        0.1165
     19 N         -31.1228   46.2417  -15.8588 N.ar    1  UNL1       -0.2344
     20 C         -30.7863   47.5468  -15.8072 C.ar    1  UNL1        0.0878
     21 C         -29.8867   47.8270  -16.8193 C.ar    1  UNL1        0.0499
     22 C         -29.2292   49.1393  -17.1070 C.3     1  UNL1        0.0511
     23 N         -29.6578   46.6983  -17.5084 N.ar    1  UNL1       -0.3443
     24 H         -29.0119   46.5673  -18.3187 H       1  UNL1        0.1668
     25 C         -29.6544   44.1183  -18.6062 C.3     1  UNL1        0.0084
     26 C         -30.4103   44.3162  -17.2968 C.3     1  UNL1        0.0637
     27 C         -25.1999   51.4442   -9.2919 C.ar    1  UNL1        0.0218
     28 C         -24.8810   51.9031  -10.5770 C.ar    1  UNL1        0.0013
     29 C         -23.5582   52.1784  -10.9268 C.ar    1  UNL1       -0.0042
     30 C         -22.5061   52.0050  -10.0019 C.ar    1  UNL1       -0.0228
     31 C         -22.8387   51.5313   -8.7112 C.ar    1  UNL1       -0.0042
     32 C         -24.1648   51.2551   -8.3646 C.ar    1  UNL1        0.0013
     33 C         -21.0602   52.3387  -10.4233 C.3     1  UNL1        0.0189
     34 C         -20.2772   51.1057  -10.9349 C.3     1  UNL1        0.0044
     35 C         -20.2920   52.9130   -9.2128 C.3     1  UNL1        0.0044
     36 C         -21.0829   53.3843  -11.5594 C.3     1  UNL1        0.0044
     37 C         -29.2951   51.5879   -5.5051 C.3     1  UNL1        0.2395
     38 O         -30.3465   52.4621   -5.1433 O.3     1  UNL1       -0.3407
     39 C         -31.2603   51.8011   -4.2953 C.3     1  UNL1        0.1748
@<TRIPOS>BOND
     1    25    26    1
     2    26    18    1
     3    18    19   ar
     4    19    20   ar
     5    20    17    1
     6    17    11    1
     7    11    12    1
     8    12    13    1
     9    13    14    1
    10    14     1    1
    11     1     2   ar
    12     2     3   ar
    13     3     4   ar
    14     4    37    1
    15    37    38    1
    16    38    39    1
    17     4     5   ar
    18     5     6   ar
    19     6     7   ar
    20     7    27    1
    21    27    28   ar
    22    28    29   ar
    23    29    30   ar
    24    30    33    1
    25    33    34    1
    26    33    35    1
    27    33    36    1
    28    30    31   ar
    29    31    32   ar
    30     7     8   ar
    31     8     9   ar
    32    14    15    1
    33    15    16    1
    34    20    21   ar
    35    21    22    1
    36    21    23   ar
    37    23    18   ar
    38    16    11    1
    39     9     1   ar
    40     9     5   ar
    41    32    27   ar
    42    23    24    1
    43     8    10    1
@<TRIPOS>MOLECULE
*****
 39 43 0 0 0
SMALL
GASTEIGER

@<TRIPOS>ATOM
      1 C         -29.3383   50.1202   -8.3580 C.ar    1  UNL1        0.1316
      2 C         -30.6224   50.1388   -8.9422 C.ar    1  UNL1        0.0281
      3 C         -30.8172   50.6446  -10.2388 C.ar    1  UNL1        0.0691
      4 C         -29.7225   51.1389  -10.9681 C.ar    1  UNL1        0.2396
      5 N         -28.4953   51.0988  -10.3773 N.ar    1  UNL1       -0.1292
      6 C         -27.2931   51.4796  -10.8435 C.ar    1  UNL1        0.3134
      7 C         -26.3643   51.2188   -9.8459 C.ar    1  UNL1        0.1320
      8 N         -26.9845   50.6763   -8.7724 N.ar    1  UNL1       -0.2941
      9 C         -28.2818   50.6245   -9.1358 C.ar    1  UNL1        0.3120
     10 H         -26.5814   50.3864   -7.9223 H       1  UNL1        0.1718
     11 N         -28.8026   48.4376   -4.3803 N.3     1  UNL1       -0.2647
     12 C         -29.6465   49.6372   -4.6116 C.3     1  UNL1        0.0941
     13 C         -29.2253   50.4484   -5.8445 C.3     1  UNL1        0.1084
     14 N         -29.1322   49.5846   -7.0298 N.pl3   1  UNL1       -0.2988
     15 C         -28.7863   48.1676   -6.8534 C.3     1  UNL1        0.1084
     16 C         -28.0178   47.9699   -5.5449 C.3     1  UNL1        0.0941
     17 C         -28.0082   48.4945   -3.1337 C.3     1  UNL1        0.1199
     18 C         -29.7654   47.5070   -0.1591 C.ar    1  UNL1        0.1165
     19 N         -29.3984   48.4742   -1.0281 N.ar    1  UNL1       -0.2344
     20 C         -28.6875   47.8182   -1.9680 C.ar    1  UNL1        0.0878
     21 C         -28.6380   46.4739   -1.6479 C.ar    1  UNL1        0.0499
     22 C         -27.9271   45.3917   -2.3966 C.3     1  UNL1        0.0511
     23 N         -29.3187   46.2838   -0.5070 N.ar    1  UNL1       -0.3443
     24 H         -29.4519   45.3877    0.0128 H       1  UNL1        0.1668
     25 C         -29.6304   48.5426    2.0952 C.3     1  UNL1        0.0084
     26 C         -30.5118   47.7840    1.1089 C.3     1  UNL1        0.0637
     27 C         -24.9091   51.4851   -9.8940 C.ar    1  UNL1        0.0218
     28 C         -24.3126   51.8799  -11.0990 C.ar    1  UNL1        0.0013
     29 C         -22.9467   52.1600  -11.1591 C.ar    1  UNL1       -0.0042
     30 C         -22.1279   52.0558  -10.0140 C.ar    1  UNL1       -0.0228
     31 C         -22.7389   51.6463   -8.8057 C.ar    1  UNL1       -0.0042
     32 C         -24.1073   51.3650   -8.7494 C.ar    1  UNL1        0.0013
     33 C         -20.6263   52.3928  -10.1195 C.3     1  UNL1        0.0189
     34 C         -19.8888   52.3096   -8.7614 C.3     1  UNL1        0.0044
     35 C         -20.4592   53.8311  -10.6567 C.3     1  UNL1        0.0044
     36 C         -19.9424   51.4015  -11.0860 C.3     1  UNL1        0.0044
     37 C         -29.9058   51.6625  -12.3702 C.3     1  UNL1        0.2395
     38 O         -29.5843   53.0385  -12.4333 O.3     1  UNL1       -0.3407
     39 C         -30.7627   53.8146  -12.4455 C.3     1  UNL1        0.1748
@<TRIPOS>BOND
     1    25    26    1
     2    26    18    1
     3    18    19   ar
     4    19    20   ar
     5    20    17    1
     6    17    11    1
     7    11    12    1
     8    12    13    1
     9    13    14    1
    10    14     1    1
    11     1     2   ar
    12     2     3   ar
    13     3     4   ar
    14     4    37    1
    15    37    38    1
    16    38    39    1
    17     4     5   ar
    18     5     6   ar
    19     6     7   ar
    20     7    27    1
    21    27    28   ar
    22    28    29   ar
    23    29    30   ar
    24    30    33    1
    25    33    34    1
    26    33    35    1
    27    33    36    1
    28    30    31   ar
    29    31    32   ar
    30     7     8   ar
    31     8     9   ar
    32    14    15    1
    33    15    16    1
    34    20    21   ar
    35    21    22    1
    36    21    23   ar
    37    23    18   ar
    38    16    11    1
    39     9     1   ar
    40     9     5   ar
    41    32    27   ar
    42    23    24    1
    43     8    10    1
@<TRIPOS>MOLECULE
*****
 39 43 0 0 0
SMALL
GASTEIGER

@<TRIPOS>ATOM
      1 C         -27.9661   48.8982   -8.7200 C.ar    1  UNL1        0.1316
      2 C         -29.2953   48.8442   -9.1900 C.ar    1  UNL1        0.0281
      3 C         -29.7256   49.6817  -10.2332 C.ar    1  UNL1        0.0691
      4 C         -28.8246   50.5862  -10.8203 C.ar    1  UNL1        0.2396
      5 N         -27.5467   50.6070  -10.3480 N.ar    1  UNL1       -0.1292
      6 C         -26.4901   51.3449  -10.7310 C.ar    1  UNL1        0.3134
      7 C         -25.4185   50.9740   -9.9309 C.ar    1  UNL1        0.1320
      8 N         -25.8060   50.0109   -9.0629 N.ar    1  UNL1       -0.2941
      9 C         -27.1099   49.8197   -9.3473 C.ar    1  UNL1        0.3120
     10 H         -25.2615   49.5551   -8.3811 H       1  UNL1        0.1718
     11 N         -26.6350   46.1846   -5.5887 N.3     1  UNL1       -0.2647
     12 C         -28.0264   46.7012   -5.6324 C.3     1  UNL1        0.0941
     13 C         -28.1481   48.0621   -6.3312 C.3     1  UNL1        0.1084
     14 N         -27.5160   48.0254   -7.6575 N.pl3   1  UNL1       -0.2988
     15 C         -26.3868   47.1130   -7.8835 C.3     1  UNL1        0.1084
     16 C         -25.6940   46.7903   -6.5577 C.3     1  UNL1        0.0941
     17 C         -26.0743   46.0863   -4.2233 C.3     1  UNL1        0.1199
     18 C         -28.7616   46.2610   -1.8445 C.ar    1  UNL1        0.1165
     19 N         -28.0743   45.5645   -2.7761 N.ar    1  UNL1       -0.2344
     20 C         -27.0829   46.4010   -3.1457 C.ar    1  UNL1        0.0878
     21 C         -27.1923   47.5817   -2.4342 C.ar    1  UNL1        0.0499
     22 C         -26.3232   48.7931   -2.5536 C.3     1  UNL1        0.0511
     23 N         -28.2520   47.4877   -1.6161 N.ar    1  UNL1       -0.3443
     24 H         -28.6183   48.2159   -0.9630 H       1  UNL1        0.1668
     25 C         -30.9105   45.0764   -2.2339 C.3     1  UNL1        0.0084
     26 C         -30.0158   45.7549   -1.2022 C.3     1  UNL1        0.0637
     27 C         -24.0452   51.5246   -9.9725 C.ar    1  UNL1        0.0218
     28 C         -23.2743   51.5630   -8.8027 C.ar    1  UNL1        0.0013
     29 C         -21.9685   52.0550   -8.8264 C.ar    1  UNL1       -0.0042
     30 C         -21.3863   52.5260  -10.0230 C.ar    1  UNL1       -0.0228
     31 C         -22.1774   52.4922  -11.1951 C.ar    1  UNL1       -0.0042
     32 C         -23.4857   52.0001  -11.1675 C.ar    1  UNL1        0.0013
     33 C         -19.9334   53.0442  -10.0092 C.3     1  UNL1        0.0189
     34 C         -19.1790   52.7009   -8.7022 C.3     1  UNL1        0.0044
     35 C         -19.9349   54.5812  -10.1601 C.3     1  UNL1        0.0044
     36 C         -19.1505   52.4145  -11.1818 C.3     1  UNL1        0.0044
     37 C         -29.2593   51.4756  -11.9578 C.3     1  UNL1        0.2395
     38 O         -29.4429   52.8040  -11.5082 O.3     1  UNL1       -0.3407
     39 C         -30.4807   53.4256  -12.2346 C.3     1  UNL1        0.1748
@<TRIPOS>BOND
     1    25    26    1
     2    26    18    1
     3    18    19   ar
     4    19    20   ar
     5    20    17    1
     6    17    11    1
     7    11    12    1
     8    12    13    1
     9    13    14    1
    10    14     1    1
    11     1     2   ar
    12     2     3   ar
    13     3     4   ar
    14     4    37    1
    15    37    38    1
    16    38    39    1
    17     4     5   ar
    18     5     6   ar
    19     6     7   ar
    20     7    27    1
    21    27    28   ar
    22    28    29   ar
    23    29    30   ar
    24    30    33    1
    25    33    34    1
    26    33    35    1
    27    33    36    1
    28    30    31   ar
    29    31    32   ar
    30     7     8   ar
    31     8     9   ar
    32    14    15    1
    33    15    16    1
    34    20    21   ar
    35    21    22    1
    36    21    23   ar
    37    23    18   ar
    38    16    11    1
    39     9     1   ar
    40     9     5   ar
    41    32    27   ar
    42    23    24    1
    43     8    10    1
@<TRIPOS>MOLECULE
*****
 39 43 0 0 0
SMALL
GASTEIGER

@<TRIPOS>ATOM
      1 C         -29.6439   50.8310   -9.4070 C.ar    1  UNL1        0.1316
      2 C         -30.6382   50.6836   -8.4170 C.ar    1  UNL1        0.0281
      3 C         -30.3165   50.7793   -7.0524 C.ar    1  UNL1        0.0691
      4 C         -28.9891   51.0257   -6.6628 C.ar    1  UNL1        0.2396
      5 N         -28.0553   51.1708   -7.6444 N.ar    1  UNL1       -0.1292
      6 C         -26.7384   51.4277   -7.5605 C.ar    1  UNL1        0.3134
      7 C         -26.2475   51.4848   -8.8573 C.ar    1  UNL1        0.1320
      8 N         -27.2525   51.2701   -9.7378 N.ar    1  UNL1       -0.2941
      9 C         -28.3354   51.0790   -8.9578 C.ar    1  UNL1        0.3120
     10 H         -27.2040   51.2567  -10.7210 H       1  UNL1        0.1718
     11 N         -30.5963   50.6877  -13.6512 N.3     1  UNL1       -0.2647
     12 C         -31.5838   51.1571  -12.6465 C.3     1  UNL1        0.0941
     13 C         -31.3646   50.5560  -11.2516 C.3     1  UNL1        0.1084
     14 N         -29.9753   50.7496  -10.8131 N.pl3   1  UNL1       -0.2988
     15 C         -28.9123   50.8211  -11.8248 C.3     1  UNL1        0.1084
     16 C         -29.3507   50.1046  -13.1040 C.3     1  UNL1        0.0941
     17 C         -31.1860   49.8750  -14.7375 C.3     1  UNL1        0.1199
     18 C         -28.7124   49.2518  -17.2681 C.ar    1  UNL1        0.1165
     19 N         -29.4567   50.1272  -16.5576 N.ar    1  UNL1       -0.2344
     20 C         -30.1568   49.3484  -15.7076 C.ar    1  UNL1        0.0878
     21 C         -29.8240   48.0236  -15.9225 C.ar    1  UNL1        0.0499
     22 C         -30.3866   46.8255  -15.2259 C.3     1  UNL1        0.0511
     23 N         -28.9137   47.9688  -16.9071 N.ar    1  UNL1       -0.3443
     24 H         -28.4753   47.1163  -17.3218 H       1  UNL1        0.1668
     25 C         -26.4146   49.1200  -18.2037 C.3     1  UNL1        0.0084
     26 C         -27.8262   49.6611  -18.4034 C.3     1  UNL1        0.0637
     27 C         -24.8465   51.7283   -9.2680 C.ar    1  UNL1        0.0218
     28 C         -24.5784   52.3551  -10.4924 C.ar    1  UNL1        0.0013
     29 C         -23.2651   52.6163  -10.8860 C.ar    1  UNL1       -0.0042
     30 C         -22.1718   52.2600  -10.0673 C.ar    1  UNL1       -0.0228
     31 C         -22.4541   51.6184   -8.8386 C.ar    1  UNL1       -0.0042
     32 C         -23.7709   51.3569   -8.4481 C.ar    1  UNL1        0.0013
     33 C         -20.7368   52.5837  -10.5314 C.3     1  UNL1        0.0189
     34 C         -20.6847   53.6798  -11.6227 C.3     1  UNL1        0.0044
     35 C         -20.0860   51.3101  -11.1142 C.3     1  UNL1        0.0044
     36 C         -19.9057   53.0798   -9.3283 C.3     1  UNL1        0.0044
     37 C         -28.6274   51.1572   -5.2049 C.3     1  UNL1        0.2395
     38 O         -29.1449   50.0691   -4.4639 O.3     1  UNL1       -0.3407
     39 C         -28.2256   48.9985   -4.4632 C.3     1  UNL1        0.1748
@<TRIPOS>BOND
     1    25    26    1
     2    26    18    1
     3    18    19   ar
     4    19    20   ar
     5    20    17    1
     6    17    11    1
     7    11    12    1
     8    12    13    1
     9    13    14    1
    10    14     1    1
    11     1     2   ar
    12     2     3   ar
    13     3     4   ar
    14     4    37    1
    15    37    38    1
    16    38    39    1
    17     4     5   ar
    18     5     6   ar
    19     6     7   ar
    20     7    27    1
    21    27    28   ar
    22    28    29   ar
    23    29    30   ar
    24    30    33    1
    25    33    34    1
    26    33    35    1
    27    33    36    1
    28    30    31   ar
    29    31    32   ar
    30     7     8   ar
    31     8     9   ar
    32    14    15    1
    33    15    16    1
    34    20    21   ar
    35    21    22    1
    36    21    23   ar
    37    23    18   ar
    38    16    11    1
    39     9     1   ar
    40     9     5   ar
    41    32    27   ar
    42    23    24    1
    43     8    10    1
@<TRIPOS>MOLECULE
*****
 39 43 0 0 0
SMALL
GASTEIGER

@<TRIPOS>ATOM
      1 C         -29.4671   50.2510   -8.3659 C.ar    1  UNL1        0.1316
      2 C         -30.7447   50.2497   -8.9643 C.ar    1  UNL1        0.0281
      3 C         -30.9217   50.6904  -10.2870 C.ar    1  UNL1        0.0691
      4 C         -29.8153   51.1385  -11.0284 C.ar    1  UNL1        0.2396
      5 N         -28.5947   51.1191  -10.4230 N.ar    1  UNL1       -0.1292
      6 C         -27.3847   51.4665  -10.8946 C.ar    1  UNL1        0.3134
      7 C         -26.4686   51.2496   -9.8749 C.ar    1  UNL1        0.1320
      8 N         -27.1046   50.7672   -8.7822 N.ar    1  UNL1       -0.2941
      9 C         -28.3983   50.7070   -9.1566 C.ar    1  UNL1        0.3120
     10 H         -26.7129   50.5178   -7.9141 H       1  UNL1        0.1718
     11 N         -28.7920   48.8467   -4.3023 N.3     1  UNL1       -0.2647
     12 C         -28.9911   47.9017   -5.4302 C.3     1  UNL1        0.0941
     13 C         -29.8268   48.4893   -6.5755 C.3     1  UNL1        0.1084
     14 N         -29.2795   49.7821   -7.0100 N.pl3   1  UNL1       -0.2988
     15 C         -28.5673   50.6184   -6.0343 C.3     1  UNL1        0.1084
     16 C         -29.0205   50.2757   -4.6134 C.3     1  UNL1        0.0941
     17 C         -29.4368   48.4197   -3.0413 C.3     1  UNL1        0.1199
     18 C         -27.3642   45.6745   -2.0028 C.ar    1  UNL1        0.1165
     19 N         -27.5585   46.7535   -2.7922 N.ar    1  UNL1       -0.2344
     20 C         -28.7554   47.2358   -2.3998 C.ar    1  UNL1        0.0878
     21 C         -29.2586   46.4404   -1.3868 C.ar    1  UNL1        0.0499
     22 C         -30.5711   46.5918   -0.6856 C.3     1  UNL1        0.0511
     23 N         -28.3778   45.4581   -1.1410 N.ar    1  UNL1       -0.3443
     24 H         -28.4689   44.6798   -0.4505 H       1  UNL1        0.1668
     25 C         -25.0429   45.4630   -2.8627 C.3     1  UNL1        0.0084
     26 C         -26.1862   44.7604   -2.1386 C.3     1  UNL1        0.0637
     27 C         -25.0108   51.5019   -9.9205 C.ar    1  UNL1        0.0218
     28 C         -24.4101   51.9009  -11.1221 C.ar    1  UNL1        0.0013
     29 C         -23.0415   52.1680  -11.1796 C.ar    1  UNL1       -0.0042
     30 C         -22.2241   52.0463  -10.0352 C.ar    1  UNL1       -0.0228
     31 C         -22.8395   51.6328   -8.8305 C.ar    1  UNL1       -0.0042
     32 C         -24.2106   51.3645   -8.7769 C.ar    1  UNL1        0.0013
     33 C         -20.7192   52.3693  -10.1376 C.3     1  UNL1        0.0189
     34 C         -19.9419   51.3654  -11.0226 C.3     1  UNL1        0.0044
     35 C         -20.0899   52.3368   -8.7276 C.3     1  UNL1        0.0044
     36 C         -20.5343   53.7749  -10.7496 C.3     1  UNL1        0.0044
     37 C         -29.9795   51.5915  -12.4572 C.3     1  UNL1        0.2395
     38 O         -29.6012   52.9473  -12.5957 O.3     1  UNL1       -0.3407
     39 C         -30.7259   53.7855  -12.4413 C.3     1  UNL1        0.1748
@<TRIPOS>BOND
     1    25    26    1
     2    26    18    1
     3    18    19   ar
     4    19    20   ar
     5    20    17    1
     6    17    11    1
     7    11    12    1
     8    12    13    1
     9    13    14    1
    10    14     1    1
    11     1     2   ar
    12     2     3   ar
    13     3     4   ar
    14     4    37    1
    15    37    38    1
    16    38    39    1
    17     4     5   ar
    18     5     6   ar
    19     6     7   ar
    20     7    27    1
    21    27    28   ar
    22    28    29   ar
    23    29    30   ar
    24    30    33    1
    25    33    34    1
    26    33    35    1
    27    33    36    1
    28    30    31   ar
    29    31    32   ar
    30     7     8   ar
    31     8     9   ar
    32    14    15    1
    33    15    16    1
    34    20    21   ar
    35    21    22    1
    36    21    23   ar
    37    23    18   ar
    38    16    11    1
    39     9     1   ar
    40     9     5   ar
    41    32    27   ar
    42    23    24    1
    43     8    10    1
@<TRIPOS>MOLECULE
*****
 39 43 0 0 0
SMALL
GASTEIGER

@<TRIPOS>ATOM
      1 C         -28.6820   48.4372   -8.3507 C.ar    1  UNL1        0.1316
      2 C         -29.4026   48.0343   -7.2067 C.ar    1  UNL1        0.0281
      3 C         -28.9290   48.3266   -5.9163 C.ar    1  UNL1        0.0691
      4 C         -27.7229   49.0299   -5.7572 C.ar    1  UNL1        0.2396
      5 N         -27.0562   49.4110   -6.8828 N.ar    1  UNL1       -0.1292
      6 C         -25.9100   50.0994   -7.0234 C.ar    1  UNL1        0.3134
      7 C         -25.6721   50.2275   -8.3846 C.ar    1  UNL1        0.1320
      8 N         -26.6649   49.6280   -9.0819 N.ar    1  UNL1       -0.2941
      9 C         -27.4848   49.1397   -8.1297 C.ar    1  UNL1        0.3120
     10 H         -26.7653   49.5634  -10.0592 H       1  UNL1        0.1718
     11 N         -30.0634   47.5910  -12.3901 N.3     1  UNL1       -0.2647
     12 C         -30.1018   48.9636  -11.8250 C.3     1  UNL1        0.0941
     13 C         -30.2167   48.9882  -10.2948 C.3     1  UNL1        0.1084
     14 N         -29.1758   48.1522   -9.6805 N.pl3   1  UNL1       -0.2988
     15 C         -28.6655   46.9907  -10.4215 C.3     1  UNL1        0.1084
     16 C         -29.7044   46.5147  -11.4393 C.3     1  UNL1        0.0941
     17 C         -31.2350   47.2543  -13.2281 C.3     1  UNL1        0.1199
     18 C         -30.5004   45.3850  -16.2075 C.ar    1  UNL1        0.1165
     19 N         -31.0229   45.4341  -14.9626 N.ar    1  UNL1       -0.2344
     20 C         -30.8558   46.7188  -14.5871 C.ar    1  UNL1        0.0878
     21 C         -30.2365   47.4162  -15.6080 C.ar    1  UNL1        0.0499
     22 C         -29.8317   48.8561  -15.6035 C.3     1  UNL1        0.0511
     23 N         -30.0148   46.5706  -16.6263 N.ar    1  UNL1       -0.3443
     24 H         -29.5450   46.7788  -17.5356 H       1  UNL1        0.1668
     25 C         -29.7658   44.3958  -18.3650 C.3     1  UNL1        0.0084
     26 C         -30.3889   44.1201  -17.0008 C.3     1  UNL1        0.0637
     27 C         -24.5188   50.8971   -9.0267 C.ar    1  UNL1        0.0218
     28 C         -23.3955   51.2367   -8.2607 C.ar    1  UNL1        0.0013
     29 C         -22.2879   51.8457   -8.8525 C.ar    1  UNL1       -0.0042
     30 C         -22.2642   52.1361  -10.2337 C.ar    1  UNL1       -0.0228
     31 C         -23.4077   51.7984  -10.9947 C.ar    1  UNL1       -0.0042
     32 C         -24.5163   51.1898  -10.3984 C.ar    1  UNL1        0.0013
     33 C         -21.0125   52.7927  -10.8514 C.3     1  UNL1        0.0189
     34 C         -19.9608   51.7632  -11.3302 C.3     1  UNL1        0.0044
     35 C         -20.3363   53.6995   -9.7999 C.3     1  UNL1        0.0044
     36 C         -21.4259   53.6430  -12.0722 C.3     1  UNL1        0.0044
     37 C         -27.2100   49.3758   -4.3820 C.3     1  UNL1        0.2395
     38 O         -26.7386   48.2175   -3.7211 O.3     1  UNL1       -0.3407
     39 C         -27.1021   48.2518   -2.3581 C.3     1  UNL1        0.1748
@<TRIPOS>BOND
     1    25    26    1
     2    26    18    1
     3    18    19   ar
     4    19    20   ar
     5    20    17    1
     6    17    11    1
     7    11    12    1
     8    12    13    1
     9    13    14    1
    10    14     1    1
    11     1     2   ar
    12     2     3   ar
    13     3     4   ar
    14     4    37    1
    15    37    38    1
    16    38    39    1
    17     4     5   ar
    18     5     6   ar
    19     6     7   ar
    20     7    27    1
    21    27    28   ar
    22    28    29   ar
    23    29    30   ar
    24    30    33    1
    25    33    34    1
    26    33    35    1
    27    33    36    1
    28    30    31   ar
    29    31    32   ar
    30     7     8   ar
    31     8     9   ar
    32    14    15    1
    33    15    16    1
    34    20    21   ar
    35    21    22    1
    36    21    23   ar
    37    23    18   ar
    38    16    11    1
    39     9     1   ar
    40     9     5   ar
    41    32    27   ar
    42    23    24    1
    43     8    10    1
@<TRIPOS>MOLECULE
*****
 39 43 0 0 0
SMALL
GASTEIGER

@<TRIPOS>ATOM
      1 C         -29.4049   50.4424   -8.3667 C.ar    1  UNL1        0.1316
      2 C         -30.6787   50.4612   -8.9729 C.ar    1  UNL1        0.0281
      3 C         -30.8469   50.9439  -10.2820 C.ar    1  UNL1        0.0691
      4 C         -29.7356   51.4144  -11.0017 C.ar    1  UNL1        0.2396
      5 N         -28.5189   51.3747  -10.3895 N.ar    1  UNL1       -0.1292
      6 C         -27.3056   51.7359  -10.8422 C.ar    1  UNL1        0.3134
      7 C         -26.3962   51.4859   -9.8241 C.ar    1  UNL1        0.1320
      8 N         -27.0394   50.9696   -8.7514 N.ar    1  UNL1       -0.2941
      9 C         -28.3308   50.9224   -9.1357 C.ar    1  UNL1        0.3120
     10 H         -26.6534   50.6923   -7.8892 H       1  UNL1        0.1718
     11 N         -28.9465   48.8262   -4.3519 N.3     1  UNL1       -0.2647
     12 C         -29.8455   49.9743   -4.6316 C.3     1  UNL1        0.0941
     13 C         -29.4181   50.7975   -5.8543 C.3     1  UNL1        0.1084
     14 N         -29.2262   49.9305   -7.0252 N.pl3   1  UNL1       -0.2988
     15 C         -28.8094   48.5368   -6.8191 C.3     1  UNL1        0.1084
     16 C         -28.0876   48.3937   -5.4772 C.3     1  UNL1        0.0941
     17 C         -28.2106   48.9382   -3.0735 C.3     1  UNL1        0.1199
     18 C         -25.9359   46.1579   -2.9911 C.ar    1  UNL1        0.1165
     19 N         -27.1501   46.6604   -3.3050 N.ar    1  UNL1       -0.2344
     20 C         -27.0647   47.9624   -2.9632 C.ar    1  UNL1        0.0878
     21 C         -25.8064   48.2183   -2.4500 C.ar    1  UNL1        0.0499
     22 C         -25.2943   49.5191   -1.9183 C.3     1  UNL1        0.0511
     23 N         -25.0997   47.0776   -2.4698 N.ar    1  UNL1       -0.3443
     24 H         -24.1230   46.9282   -2.1311 H       1  UNL1        0.1668
     25 C         -25.2204   44.1189   -1.7651 C.3     1  UNL1        0.0084
     26 C         -25.5898   44.7072   -3.1225 C.3     1  UNL1        0.0637
     27 C         -24.9380   51.7383   -9.8525 C.ar    1  UNL1        0.0218
     28 C         -24.1498   51.3940   -8.7460 C.ar    1  UNL1        0.0013
     29 C         -22.7696   51.6007   -8.7631 C.ar    1  UNL1       -0.0042
     30 C         -22.1279   52.1591   -9.8896 C.ar    1  UNL1       -0.0228
     31 C         -22.9349   52.5125  -10.9962 C.ar    1  UNL1       -0.0042
     32 C         -24.3175   52.3054  -10.9752 C.ar    1  UNL1        0.0013
     33 C         -20.5977   52.3534   -9.8745 C.3     1  UNL1        0.0189
     34 C         -19.9714   52.1304   -8.4768 C.3     1  UNL1        0.0044
     35 C         -20.2585   53.7939  -10.3161 C.3     1  UNL1        0.0044
     36 C         -19.9412   51.3505  -10.8479 C.3     1  UNL1        0.0044
     37 C         -29.8904   51.9128  -12.4164 C.3     1  UNL1        0.2395
     38 O         -29.4981   53.2684  -12.5119 O.3     1  UNL1       -0.3407
     39 C         -30.6230   54.0857  -12.7523 C.3     1  UNL1        0.1748
@<TRIPOS>BOND
     1    25    26    1
     2    26    18    1
     3    18    19   ar
     4    19    20   ar
     5    20    17    1
     6    17    11    1
     7    11    12    1
     8    12    13    1
     9    13    14    1
    10    14     1    1
    11     1     2   ar
    12     2     3   ar
    13     3     4   ar
    14     4    37    1
    15    37    38    1
    16    38    39    1
    17     4     5   ar
    18     5     6   ar
    19     6     7   ar
    20     7    27    1
    21    27    28   ar
    22    28    29   ar
    23    29    30   ar
    24    30    33    1
    25    33    34    1
    26    33    35    1
    27    33    36    1
    28    30    31   ar
    29    31    32   ar
    30     7     8   ar
    31     8     9   ar
    32    14    15    1
    33    15    16    1
    34    20    21   ar
    35    21    22    1
    36    21    23   ar
    37    23    18   ar
    38    16    11    1
    39     9     1   ar
    40     9     5   ar
    41    32    27   ar
    42    23    24    1
    43     8    10    1
@<TRIPOS>MOLECULE
*****
 39 43 0 0 0
SMALL
GASTEIGER

@<TRIPOS>ATOM
      1 C         -29.4751   50.9342   -9.2504 C.ar    1  UNL1        0.1316
      2 C         -30.4526   50.8210   -8.2394 C.ar    1  UNL1        0.0281
      3 C         -30.1017   50.9242   -6.8826 C.ar    1  UNL1        0.0691
      4 C         -28.7615   51.1440   -6.5220 C.ar    1  UNL1        0.2396
      5 N         -27.8443   51.2564   -7.5234 N.ar    1  UNL1       -0.1292
      6 C         -26.5203   51.4835   -7.4683 C.ar    1  UNL1        0.3134
      7 C         -26.0542   51.5148   -8.7751 C.ar    1  UNL1        0.1320
      8 N         -27.0812   51.3139   -9.6331 N.ar    1  UNL1       -0.2941
      9 C         -28.1525   51.1566   -8.8299 C.ar    1  UNL1        0.3120
     10 H         -27.0526   51.2884  -10.6169 H       1  UNL1        0.1718
     11 N         -30.5727   50.7771  -13.4589 N.3     1  UNL1       -0.2647
     12 C         -31.5813   50.6010  -12.3836 C.3     1  UNL1        0.0941
     13 C         -30.9906   50.0448  -11.0809 C.3     1  UNL1        0.1084
     14 N         -29.8362   50.8450  -10.6487 N.pl3   1  UNL1       -0.2988
     15 C         -29.0224   51.5277  -11.6637 C.3     1  UNL1        0.1084
     16 C         -29.1614   50.8226  -13.0148 C.3     1  UNL1        0.0941
     17 C         -30.7822   49.8953  -14.6280 C.3     1  UNL1        0.1199
     18 C         -29.9973   46.6489  -13.3030 C.ar    1  UNL1        0.1165
     19 N         -30.3077   47.9473  -13.0960 N.ar    1  UNL1       -0.2344
     20 C         -30.4780   48.4459  -14.3377 C.ar    1  UNL1        0.0878
     21 C         -30.2659   47.4430  -15.2657 C.ar    1  UNL1        0.0499
     22 C         -30.3176   47.5641  -16.7556 C.3     1  UNL1        0.0511
     23 N         -29.9631   46.3130  -14.6080 N.ar    1  UNL1       -0.3443
     24 H         -29.7267   45.3819  -15.0180 H       1  UNL1        0.1668
     25 C         -29.6292   46.4297  -10.8558 C.3     1  UNL1        0.0084
     26 C         -29.6365   45.7056  -12.1977 C.3     1  UNL1        0.0637
     27 C         -24.6564   51.7210   -9.2161 C.ar    1  UNL1        0.0218
     28 C         -24.3985   52.2944  -10.4685 C.ar    1  UNL1        0.0013
     29 C         -23.0878   52.5202  -10.8918 C.ar    1  UNL1       -0.0042
     30 C         -21.9872   52.1809  -10.0757 C.ar    1  UNL1       -0.0228
     31 C         -22.2595   51.5931   -8.8182 C.ar    1  UNL1       -0.0042
     32 C         -23.5737   51.3668   -8.3979 C.ar    1  UNL1        0.0013
     33 C         -20.5551   52.4646  -10.5737 C.3     1  UNL1        0.0189
     34 C         -19.9320   51.2733  -11.3404 C.3     1  UNL1        0.0044
     35 C         -19.6433   52.7739   -9.3662 C.3     1  UNL1        0.0044
     36 C         -20.5723   53.6787  -11.5277 C.3     1  UNL1        0.0044
     37 C         -28.3678   51.2831   -5.0731 C.3     1  UNL1        0.2395
     38 O         -27.4517   50.2695   -4.7070 O.3     1  UNL1       -0.3407
     39 C         -28.1444   49.1236   -4.2620 C.3     1  UNL1        0.1748
@<TRIPOS>BOND
     1    25    26    1
     2    26    18    1
     3    18    19   ar
     4    19    20   ar
     5    20    17    1
     6    17    11    1
     7    11    12    1
     8    12    13    1
     9    13    14    1
    10    14     1    1
    11     1     2   ar
    12     2     3   ar
    13     3     4   ar
    14     4    37    1
    15    37    38    1
    16    38    39    1
    17     4     5   ar
    18     5     6   ar
    19     6     7   ar
    20     7    27    1
    21    27    28   ar
    22    28    29   ar
    23    29    30   ar
    24    30    33    1
    25    33    34    1
    26    33    35    1
    27    33    36    1
    28    30    31   ar
    29    31    32   ar
    30     7     8   ar
    31     8     9   ar
    32    14    15    1
    33    15    16    1
    34    20    21   ar
    35    21    22    1
    36    21    23   ar
    37    23    18   ar
    38    16    11    1
    39     9     1   ar
    40     9     5   ar
    41    32    27   ar
    42    23    24    1
    43     8    10    1
@<TRIPOS>MOLECULE
*****
 39 43 0 0 0
SMALL
GASTEIGER

@<TRIPOS>ATOM
      1 C         -26.3826   51.0705  -10.6265 C.ar    1  UNL1        0.1316
      2 C         -27.2013   51.5513  -11.6700 C.ar    1  UNL1        0.0281
      3 C         -28.5349   51.1259  -11.7944 C.ar    1  UNL1        0.0691
      4 C         -29.0657   50.2105  -10.8698 C.ar    1  UNL1        0.2396
      5 N         -28.2504   49.7724   -9.8698 N.ar    1  UNL1       -0.1292
      6 C         -28.4970   48.9260   -8.8549 C.ar    1  UNL1        0.3134
      7 C         -27.3287   48.8226   -8.1130 C.ar    1  UNL1        0.1320
      8 N         -26.3676   49.6022   -8.6604 N.ar    1  UNL1       -0.2941
      9 C         -26.9687   50.1597   -9.7306 C.ar    1  UNL1        0.3120
     10 H         -25.4427   49.7323   -8.3490 H       1  UNL1        0.1718
     11 N         -22.3046   52.5194  -10.1665 N.3     1  UNL1       -0.2647
     12 C         -23.0309   52.6327  -11.4566 C.3     1  UNL1        0.0941
     13 C         -24.1096   51.5572  -11.6437 C.3     1  UNL1        0.1084
     14 N         -25.0144   51.5196  -10.4863 N.pl3   1  UNL1       -0.2988
     15 C         -24.4994   51.9090   -9.1665 C.3     1  UNL1        0.1084
     16 C         -22.9810   51.7254   -9.1161 C.3     1  UNL1        0.0941
     17 C         -20.8716   52.1826  -10.3124 C.3     1  UNL1        0.1199
     18 C         -19.2225   54.3413   -7.9606 C.ar    1  UNL1        0.1165
     19 N         -20.2907   54.0702   -8.7421 N.ar    1  UNL1       -0.2344
     20 C         -19.9943   52.8790   -9.3010 C.ar    1  UNL1        0.0878
     21 C         -18.7573   52.4574   -8.8491 C.ar    1  UNL1        0.0499
     22 C         -18.0293   51.2103   -9.2387 C.3     1  UNL1        0.0511
     23 N         -18.2757   53.3830   -8.0050 N.ar    1  UNL1       -0.3443
     24 H         -17.3560   53.3756   -7.5099 H       1  UNL1        0.1668
     25 C         -19.6288   56.7921   -7.9965 C.3     1  UNL1        0.0084
     26 C         -19.0679   55.6204   -7.1979 C.3     1  UNL1        0.0637
     27 C         -27.1115   47.9924   -6.9070 C.ar    1  UNL1        0.0218
     28 C         -25.8796   47.3528   -6.7142 C.ar    1  UNL1        0.0013
     29 C         -25.6465   46.5863   -5.5715 C.ar    1  UNL1       -0.0042
     30 C         -26.6386   46.4329   -4.5791 C.ar    1  UNL1       -0.0228
     31 C         -27.8816   47.0743   -4.7895 C.ar    1  UNL1       -0.0042
     32 C         -28.1123   47.8402   -5.9362 C.ar    1  UNL1        0.0013
     33 C         -26.3334   45.5924   -3.3222 C.3     1  UNL1        0.0189
     34 C         -27.4756   45.6249   -2.2783 C.3     1  UNL1        0.0044
     35 C         -25.0584   46.1339   -2.6393 C.3     1  UNL1        0.0044
     36 C         -26.1114   44.1193   -3.7286 C.3     1  UNL1        0.0044
     37 C         -30.5014   49.7609  -10.9705 C.3     1  UNL1        0.2395
     38 O         -30.6847   48.9315  -12.1015 O.3     1  UNL1       -0.3407
     39 C         -30.6028   47.5731  -11.7284 C.3     1  UNL1        0.1748
@<TRIPOS>BOND
     1    25    26    1
     2    26    18    1
     3    18    19   ar
     4    19    20   ar
     5    20    17    1
     6    17    11    1
     7    11    12    1
     8    12    13    1
     9    13    14    1
    10    14     1    1
    11     1     2   ar
    12     2     3   ar
    13     3     4   ar
    14     4    37    1
    15    37    38    1
    16    38    39    1
    17     4     5   ar
    18     5     6   ar
    19     6     7   ar
    20     7    27    1
    21    27    28   ar
    22    28    29   ar
    23    29    30   ar
    24    30    33    1
    25    33    34    1
    26    33    35    1
    27    33    36    1
    28    30    31   ar
    29    31    32   ar
    30     7     8   ar
    31     8     9   ar
    32    14    15    1
    33    15    16    1
    34    20    21   ar
    35    21    22    1
    36    21    23   ar
    37    23    18   ar
    38    16    11    1
    39     9     1   ar
    40     9     5   ar
    41    32    27   ar
    42    23    24    1
    43     8    10    1
