@<TRIPOS>MOLECULE
*****
 42 46 0 0 0
SMALL
GASTEIGER

@<TRIPOS>ATOM
      1 C         -25.7744   51.2625  -12.1804 C.3     1  UNL1        0.1332
      2 N         -25.1778   51.1810  -10.8476 N.ar    1  UNL1       -0.2977
      3 C         -23.9323   51.5685  -10.4559 C.ar    1  UNL1        0.2018
      4 N         -23.6954   51.3894   -9.1286 N.ar    1  UNL1       -0.2135
      5 C         -24.8535   50.8731   -8.6821 C.ar    1  UNL1        0.0999
      6 C         -25.1709   50.5163   -7.3648 C.ar    1  UNL1        0.0282
      7 C         -26.4764   50.0330   -7.0933 C.ar    1  UNL1        0.0888
      8 C         -27.3800   49.9135   -8.1775 C.ar    1  UNL1        0.1401
      9 C         -27.0382   50.2658   -9.4622 C.ar    1  UNL1        0.0327
     10 C         -25.7522   50.7530   -9.7083 C.ar    1  UNL1        0.0789
     11 C         -28.1810   50.0133  -10.3827 C.3     1  UNL1        0.0709
     12 C         -29.2870   49.4772   -9.4147 C.3     1  UNL1        0.1375
     13 C         -29.7413   48.0646   -9.8049 C.3     1  UNL1        0.0439
     14 C         -30.4891   50.4294   -9.3588 C.3     1  UNL1        0.0439
     15 O         -28.6708   49.4312   -8.1271 O.3     1  UNL1       -0.4824
     16 C         -26.8579   49.6492   -5.7179 C.2     1  UNL1        0.2525
     17 O         -26.4238   50.3301   -4.7491 O.2     1  UNL1       -0.2697
     18 N         -27.7123   48.5172   -5.4792 N.am    1  UNL1       -0.2805
     19 H         -28.1411   48.0229   -6.2927 H       1  UNL1        0.1552
     20 C         -27.9877   48.0016   -4.1668 C.ar    1  UNL1        0.0488
     21 C         -29.0245   48.5612   -3.4006 C.ar    1  UNL1        0.0183
     22 C         -29.3522   48.0405   -2.1389 C.ar    1  UNL1        0.0726
     23 C         -28.6749   46.9032   -1.6759 C.ar    1  UNL1        0.0037
     24 C         -27.6524   46.3305   -2.4335 C.ar    1  UNL1       -0.0007
     25 C         -27.2772   46.8838   -3.6699 C.ar    1  UNL1        0.0204
     26 C         -30.4973   48.6223   -1.3484 C.3     1  UNL1        0.4186
     27 F         -30.0754   48.9986   -0.0848 F       1  UNL1       -0.1659
     28 F         -30.9887   49.7328   -2.0087 F       1  UNL1       -0.1659
     29 F         -31.5152   47.6951   -1.2056 F       1  UNL1       -0.1659
     30 C         -26.1688   46.2335   -4.4713 C.3     1  UNL1        0.1648
     31 O         -26.5405   46.0718   -5.8142 O.3     1  UNL1       -0.3772
     32 H         -27.2083   45.3371   -5.8365 H       1  UNL1        0.2109
     33 N         -22.9699   52.1688  -11.3359 N.pl3   1  UNL1       -0.2814
     34 H         -23.2664   52.4257  -12.3032 H       1  UNL1        0.1551
     35 C         -21.7290   52.7040  -10.8534 C.ar    1  UNL1        0.0889
     36 C         -20.6146   51.8568  -10.7340 C.ar    1  UNL1        0.1543
     37 F         -20.7072   50.5505  -11.0889 F       1  UNL1       -0.2028
     38 C         -19.3949   52.3569  -10.2693 C.ar    1  UNL1        0.0310
     39 C         -19.2805   53.7004   -9.9074 C.ar    1  UNL1        0.0033
     40 C         -20.3883   54.5460   -9.9984 C.ar    1  UNL1        0.0128
     41 C         -21.6152   54.0562  -10.4628 C.ar    1  UNL1        0.0733
     42 CL        -23.0020   55.1396  -10.4685 Cl      1  UNL1       -0.0809
@<TRIPOS>BOND
     1     1     2    1
     2     2     3   ar
     3     3    33    1
     4    33    35    1
     5    35    36   ar
     6    36    37    1
     7    36    38   ar
     8    38    39   ar
     9    39    40   ar
    10    40    41   ar
    11    41    42    1
    12     3     4   ar
    13     4     5   ar
    14     5     6   ar
    15     6     7   ar
    16     7    16    1
    17    16    17    2
    18    16    18   am
    19    18    20    1
    20    20    21   ar
    21    21    22   ar
    22    22    26    1
    23    26    27    1
    24    26    28    1
    25    26    29    1
    26    22    23   ar
    27    23    24   ar
    28    24    25   ar
    29    25    30    1
    30    30    31    1
    31     7     8   ar
    32     8     9   ar
    33     9    10   ar
    34     9    11    1
    35    11    12    1
    36    12    13    1
    37    12    14    1
    38    12    15    1
    39    10     2   ar
    40    41    35   ar
    41    10     5   ar
    42    25    20   ar
    43    15     8    1
    44    33    34    1
    45    18    19    1
    46    31    32    1
@<TRIPOS>MOLECULE
*****
 42 46 0 0 0
SMALL
GASTEIGER

@<TRIPOS>ATOM
      1 C         -24.8241   51.2058  -11.7831 C.3     1  UNL1        0.1332
      2 N         -24.6039   51.1608  -10.3379 N.ar    1  UNL1       -0.2977
      3 C         -23.4306   51.2921   -9.6590 C.ar    1  UNL1        0.2018
      4 N         -23.5711   51.2370   -8.3073 N.ar    1  UNL1       -0.2135
      5 C         -24.8955   51.0703   -8.1479 C.ar    1  UNL1        0.0999
      6 C         -25.5987   50.9731   -6.9398 C.ar    1  UNL1        0.0282
      7 C         -27.0107   50.8501   -6.9899 C.ar    1  UNL1        0.0888
      8 C         -27.6297   50.8062   -8.2631 C.ar    1  UNL1        0.1401
      9 C         -26.9126   50.8976   -9.4331 C.ar    1  UNL1        0.0327
     10 C         -25.5238   51.0323   -9.3641 C.ar    1  UNL1        0.0789
     11 C         -27.8289   50.8032  -10.6029 C.3     1  UNL1        0.0709
     12 C         -29.2337   50.6732   -9.9266 C.3     1  UNL1        0.1375
     13 C         -29.9342   49.3686  -10.3282 C.3     1  UNL1        0.0439
     14 C         -30.1235   51.8803  -10.2518 C.3     1  UNL1        0.0439
     15 O         -28.9752   50.6518   -8.5221 O.3     1  UNL1       -0.4824
     16 C         -27.7947   50.7496   -5.7409 C.2     1  UNL1        0.2525
     17 O         -27.2956   51.1848   -4.6675 O.2     1  UNL1       -0.2697
     18 N         -29.1091   50.1659   -5.7412 N.am    1  UNL1       -0.2805
     19 H         -29.5471   49.8991   -6.6506 H       1  UNL1        0.1552
     20 C         -29.8512   49.8966   -4.5409 C.ar    1  UNL1        0.0488
     21 C         -29.4347   48.8675   -3.6791 C.ar    1  UNL1        0.0183
     22 C         -30.1075   48.6196   -2.4723 C.ar    1  UNL1        0.0726
     23 C         -31.1659   49.4602   -2.0987 C.ar    1  UNL1        0.0037
     24 C         -31.5803   50.4937   -2.9399 C.ar    1  UNL1       -0.0007
     25 C         -30.9511   50.7089   -4.1782 C.ar    1  UNL1        0.0204
     26 C         -29.6209   47.5419   -1.5361 C.3     1  UNL1        0.4186
     27 F         -29.5960   48.0046   -0.2316 F       1  UNL1       -0.1659
     28 F         -30.4708   46.4545   -1.6125 F       1  UNL1       -0.1659
     29 F         -28.3409   47.1389   -1.8758 F       1  UNL1       -0.1659
     30 C         -31.4196   51.8443   -5.0643 C.3     1  UNL1        0.1648
     31 O         -30.3685   52.7247   -5.3603 O.3     1  UNL1       -0.3772
     32 H         -30.1839   53.2348   -4.5284 H       1  UNL1        0.2109
     33 N         -22.1644   51.5292  -10.2928 N.pl3   1  UNL1       -0.2814
     34 H         -21.9361   51.0082  -11.1679 H       1  UNL1        0.1551
     35 C         -21.3441   52.6567   -9.9534 C.ar    1  UNL1        0.0889
     36 C         -20.6222   52.6442   -8.7483 C.ar    1  UNL1        0.1543
     37 F         -20.6863   51.5688   -7.9235 F       1  UNL1       -0.2028
     38 C         -19.8142   53.7300   -8.3987 C.ar    1  UNL1        0.0310
     39 C         -19.7309   54.8410   -9.2400 C.ar    1  UNL1        0.0033
     40 C         -20.4637   54.8749  -10.4284 C.ar    1  UNL1        0.0128
     41 C         -21.2761   53.7929  -10.7891 C.ar    1  UNL1        0.0733
     42 CL        -22.2504   53.9265  -12.2485 Cl      1  UNL1       -0.0809
@<TRIPOS>BOND
     1     1     2    1
     2     2     3   ar
     3     3    33    1
     4    33    35    1
     5    35    36   ar
     6    36    37    1
     7    36    38   ar
     8    38    39   ar
     9    39    40   ar
    10    40    41   ar
    11    41    42    1
    12     3     4   ar
    13     4     5   ar
    14     5     6   ar
    15     6     7   ar
    16     7    16    1
    17    16    17    2
    18    16    18   am
    19    18    20    1
    20    20    21   ar
    21    21    22   ar
    22    22    26    1
    23    26    27    1
    24    26    28    1
    25    26    29    1
    26    22    23   ar
    27    23    24   ar
    28    24    25   ar
    29    25    30    1
    30    30    31    1
    31     7     8   ar
    32     8     9   ar
    33     9    10   ar
    34     9    11    1
    35    11    12    1
    36    12    13    1
    37    12    14    1
    38    12    15    1
    39    10     2   ar
    40    41    35   ar
    41    10     5   ar
    42    25    20   ar
    43    15     8    1
    44    33    34    1
    45    18    19    1
    46    31    32    1
@<TRIPOS>MOLECULE
*****
 42 46 0 0 0
SMALL
GASTEIGER

@<TRIPOS>ATOM
      1 C         -31.5825   49.0761   -7.8321 C.3     1  UNL1        0.1332
      2 N         -30.2667   49.3751   -7.2678 N.ar    1  UNL1       -0.2977
      3 C         -29.7609   48.9974   -6.0610 C.ar    1  UNL1        0.2018
      4 N         -28.4830   49.4120   -5.8491 N.ar    1  UNL1       -0.2135
      5 C         -28.1871   50.0705   -6.9830 C.ar    1  UNL1        0.0999
      6 C         -26.9740   50.6896   -7.3123 C.ar    1  UNL1        0.0282
      7 C         -26.8494   51.2909   -8.5907 C.ar    1  UNL1        0.0888
      8 C         -27.9709   51.2542   -9.4551 C.ar    1  UNL1        0.1401
      9 C         -29.1519   50.6442   -9.1020 C.ar    1  UNL1        0.0327
     10 C         -29.2517   50.0450   -7.8440 C.ar    1  UNL1        0.0789
     11 C         -30.1472   50.7829  -10.2008 C.3     1  UNL1        0.0709
     12 C         -29.3413   51.5572  -11.2957 C.3     1  UNL1        0.1375
     13 C         -30.0081   52.8936  -11.6470 C.3     1  UNL1        0.0439
     14 C         -29.1537   50.7047  -12.5578 C.3     1  UNL1        0.0439
     15 O         -28.0625   51.8117  -10.7129 O.3     1  UNL1       -0.4824
     16 C         -25.5868   51.9513   -8.9838 C.2     1  UNL1        0.2525
     17 O         -25.6234   53.1358   -9.4152 O.2     1  UNL1       -0.2697
     18 N         -24.3301   51.2600   -8.8780 N.am    1  UNL1       -0.2805
     19 H         -24.3040   50.3175   -8.4297 H       1  UNL1        0.1552
     20 C         -23.0958   51.7876   -9.3901 C.ar    1  UNL1        0.0488
     21 C         -22.0269   52.0387   -8.5128 C.ar    1  UNL1        0.0183
     22 C         -20.7915   52.5006   -8.9933 C.ar    1  UNL1        0.0726
     23 C         -20.6106   52.6445  -10.3764 C.ar    1  UNL1        0.0037
     24 C         -21.6605   52.3856  -11.2586 C.ar    1  UNL1       -0.0007
     25 C         -22.9189   51.9823  -10.7800 C.ar    1  UNL1        0.0204
     26 C         -19.6396   52.7217   -8.0451 C.3     1  UNL1        0.4186
     27 F         -20.0389   53.4881   -6.9638 F       1  UNL1       -0.1659
     28 F         -19.1853   51.4989   -7.5877 F       1  UNL1       -0.1659
     29 F         -18.6010   53.3798   -8.6809 F       1  UNL1       -0.1659
     30 C         -24.0351   51.7014  -11.7645 C.3     1  UNL1        0.1648
     31 O         -24.5509   50.4085  -11.5922 O.3     1  UNL1       -0.3772
     32 H         -23.8652   49.7812  -11.9425 H       1  UNL1        0.2109
     33 N         -30.4740   48.1853   -5.1160 N.pl3   1  UNL1       -0.2814
     34 H         -31.4777   47.9657   -5.3000 H       1  UNL1        0.1551
     35 C         -29.7971   47.4211   -4.1075 C.ar    1  UNL1        0.0889
     36 C         -29.6459   47.9624   -2.8199 C.ar    1  UNL1        0.1543
     37 F         -30.1513   49.1876   -2.5292 F       1  UNL1       -0.2028
     38 C         -28.9929   47.2347   -1.8210 C.ar    1  UNL1        0.0310
     39 C         -28.4740   45.9694   -2.1013 C.ar    1  UNL1        0.0033
     40 C         -28.5965   45.4318   -3.3845 C.ar    1  UNL1        0.0128
     41 C         -29.2489   46.1515   -4.3931 C.ar    1  UNL1        0.0733
     42 CL        -29.2927   45.4695   -6.0148 Cl      1  UNL1       -0.0809
@<TRIPOS>BOND
     1     1     2    1
     2     2     3   ar
     3     3    33    1
     4    33    35    1
     5    35    36   ar
     6    36    37    1
     7    36    38   ar
     8    38    39   ar
     9    39    40   ar
    10    40    41   ar
    11    41    42    1
    12     3     4   ar
    13     4     5   ar
    14     5     6   ar
    15     6     7   ar
    16     7    16    1
    17    16    17    2
    18    16    18   am
    19    18    20    1
    20    20    21   ar
    21    21    22   ar
    22    22    26    1
    23    26    27    1
    24    26    28    1
    25    26    29    1
    26    22    23   ar
    27    23    24   ar
    28    24    25   ar
    29    25    30    1
    30    30    31    1
    31     7     8   ar
    32     8     9   ar
    33     9    10   ar
    34     9    11    1
    35    11    12    1
    36    12    13    1
    37    12    14    1
    38    12    15    1
    39    10     2   ar
    40    41    35   ar
    41    10     5   ar
    42    25    20   ar
    43    15     8    1
    44    33    34    1
    45    18    19    1
    46    31    32    1
@<TRIPOS>MOLECULE
*****
 42 46 0 0 0
SMALL
GASTEIGER

@<TRIPOS>ATOM
      1 C         -23.9236   52.5713  -11.5423 C.3     1  UNL1        0.1332
      2 N         -23.7336   52.0114  -10.2046 N.ar    1  UNL1       -0.2977
      3 C         -22.6229   52.0642   -9.4181 C.ar    1  UNL1        0.2018
      4 N         -22.7828   51.4713   -8.2046 N.ar    1  UNL1       -0.2135
      5 C         -24.0551   51.0392   -8.2448 C.ar    1  UNL1        0.0999
      6 C         -24.7559   50.3701   -7.2326 C.ar    1  UNL1        0.0282
      7 C         -26.1176   50.0436   -7.4581 C.ar    1  UNL1        0.0888
      8 C         -26.6864   50.3905   -8.7081 C.ar    1  UNL1        0.1401
      9 C         -25.9717   51.0420   -9.6860 C.ar    1  UNL1        0.0327
     10 C         -24.6356   51.3680   -9.4407 C.ar    1  UNL1        0.0789
     11 C         -26.8253   51.2540  -10.8874 C.3     1  UNL1        0.0709
     12 C         -28.1959   50.6432  -10.4445 C.3     1  UNL1        0.1375
     13 C         -28.6271   49.4967  -11.3684 C.3     1  UNL1        0.0439
     14 C         -29.2900   51.7171  -10.3781 C.3     1  UNL1        0.0439
     15 O         -27.9717   50.1269   -9.1319 O.3     1  UNL1       -0.4824
     16 C         -26.8981   49.3423   -6.4171 C.2     1  UNL1        0.2525
     17 O         -26.3887   48.3449   -5.8372 O.2     1  UNL1       -0.2697
     18 N         -28.2200   49.7853   -6.0641 N.am    1  UNL1       -0.2805
     19 H         -28.5896   50.6676   -6.4822 H       1  UNL1        0.1552
     20 C         -29.0852   49.0547   -5.1798 C.ar    1  UNL1        0.0488
     21 C         -28.7152   48.8701   -3.8366 C.ar    1  UNL1        0.0183
     22 C         -29.5668   48.2095   -2.9372 C.ar    1  UNL1        0.0726
     23 C         -30.8308   47.7928   -3.3788 C.ar    1  UNL1        0.0037
     24 C         -31.2149   47.9823   -4.7070 C.ar    1  UNL1       -0.0007
     25 C         -30.3428   48.5875   -5.6283 C.ar    1  UNL1        0.0204
     26 C         -29.1761   48.0595   -1.4882 C.3     1  UNL1        0.4186
     27 F         -30.0064   48.8159   -0.6790 F       1  UNL1       -0.1659
     28 F         -29.2803   46.7302   -1.1237 F       1  UNL1       -0.1659
     29 F         -27.8736   48.4821   -1.2855 F       1  UNL1       -0.1659
     30 C         -30.7932   48.7857   -7.0607 C.3     1  UNL1        0.1648
     31 O         -29.7614   48.4887   -7.9633 O.3     1  UNL1       -0.3772
     32 H         -29.1047   49.2307   -7.8965 H       1  UNL1        0.2109
     33 N         -21.4097   52.7329   -9.7948 N.pl3   1  UNL1       -0.2814
     34 H         -21.4736   53.6742  -10.2414 H       1  UNL1        0.1551
     35 C         -20.1266   52.3082   -9.3125 C.ar    1  UNL1        0.0889
     36 C         -19.7726   52.5692   -7.9782 C.ar    1  UNL1        0.1543
     37 F         -20.6429   53.2000   -7.1502 F       1  UNL1       -0.2028
     38 C         -18.5294   52.1619   -7.4857 C.ar    1  UNL1        0.0310
     39 C         -17.6254   51.5046   -8.3222 C.ar    1  UNL1        0.0033
     40 C         -17.9568   51.2622   -9.6571 C.ar    1  UNL1        0.0128
     41 C         -19.1993   51.6654  -10.1614 C.ar    1  UNL1        0.0733
     42 CL        -19.5286   51.4202  -11.8727 Cl      1  UNL1       -0.0809
@<TRIPOS>BOND
     1     1     2    1
     2     2     3   ar
     3     3    33    1
     4    33    35    1
     5    35    36   ar
     6    36    37    1
     7    36    38   ar
     8    38    39   ar
     9    39    40   ar
    10    40    41   ar
    11    41    42    1
    12     3     4   ar
    13     4     5   ar
    14     5     6   ar
    15     6     7   ar
    16     7    16    1
    17    16    17    2
    18    16    18   am
    19    18    20    1
    20    20    21   ar
    21    21    22   ar
    22    22    26    1
    23    26    27    1
    24    26    28    1
    25    26    29    1
    26    22    23   ar
    27    23    24   ar
    28    24    25   ar
    29    25    30    1
    30    30    31    1
    31     7     8   ar
    32     8     9   ar
    33     9    10   ar
    34     9    11    1
    35    11    12    1
    36    12    13    1
    37    12    14    1
    38    12    15    1
    39    10     2   ar
    40    41    35   ar
    41    10     5   ar
    42    25    20   ar
    43    15     8    1
    44    33    34    1
    45    18    19    1
    46    31    32    1
@<TRIPOS>MOLECULE
*****
 42 46 0 0 0
SMALL
GASTEIGER

@<TRIPOS>ATOM
      1 C         -30.3641   46.8288   -5.7582 C.3     1  UNL1        0.1332
      2 N         -29.0867   47.4829   -5.4762 N.ar    1  UNL1       -0.2977
      3 C         -28.2711   47.3116   -4.3990 C.ar    1  UNL1        0.2018
      4 N         -27.1294   48.0488   -4.4542 N.ar    1  UNL1       -0.2135
      5 C         -27.2461   48.6993   -5.6247 C.ar    1  UNL1        0.0999
      6 C         -26.3263   49.5885   -6.1962 C.ar    1  UNL1        0.0282
      7 C         -26.6187   50.1325   -7.4730 C.ar    1  UNL1        0.0888
      8 C         -27.8403   49.7651   -8.0885 C.ar    1  UNL1        0.1401
      9 C         -28.7275   48.8942   -7.5003 C.ar    1  UNL1        0.0327
     10 C         -28.4162   48.3575   -6.2487 C.ar    1  UNL1        0.0789
     11 C         -29.9220   48.7158   -8.3712 C.3     1  UNL1        0.0709
     12 C         -29.5792   49.6101   -9.6083 C.3     1  UNL1        0.1375
     13 C         -30.6269   50.7118   -9.8152 C.3     1  UNL1        0.0439
     14 C         -29.4304   48.7673  -10.8820 C.3     1  UNL1        0.0439
     15 O         -28.3215   50.2127   -9.3006 O.3     1  UNL1       -0.4824
     16 C         -25.6755   51.0707   -8.1171 C.2     1  UNL1        0.2525
     17 O         -26.0236   52.2714   -8.2839 O.2     1  UNL1       -0.2697
     18 N         -24.3770   50.6288   -8.5494 N.am    1  UNL1       -0.2805
     19 H         -24.0664   49.6593   -8.3181 H       1  UNL1        0.1552
     20 C         -23.4828   51.4479   -9.3200 C.ar    1  UNL1        0.0488
     21 C         -22.2919   51.9175   -8.7400 C.ar    1  UNL1        0.0183
     22 C         -21.3735   52.6721   -9.4867 C.ar    1  UNL1        0.0726
     23 C         -21.6252   52.8962  -10.8479 C.ar    1  UNL1        0.0037
     24 C         -22.7980   52.4237  -11.4385 C.ar    1  UNL1       -0.0007
     25 C         -23.7512   51.7206  -10.6819 C.ar    1  UNL1        0.0204
     26 C         -20.0785   53.1299   -8.8637 C.3     1  UNL1        0.4186
     27 F         -20.2165   53.2590   -7.4924 F       1  UNL1       -0.1659
     28 F         -19.0908   52.2009   -9.1319 F       1  UNL1       -0.1659
     29 F         -19.6950   54.3571   -9.3766 F       1  UNL1       -0.1659
     30 C         -25.0100   51.2142  -11.3549 C.3     1  UNL1        0.1648
     31 O         -25.1658   49.8329  -11.1672 O.3     1  UNL1       -0.3772
     32 H         -24.4867   49.3909  -11.7416 H       1  UNL1        0.2109
     33 N         -28.5461   46.3964   -3.3277 N.pl3   1  UNL1       -0.2814
     34 H         -27.9349   45.5579   -3.2149 H       1  UNL1        0.1551
     35 C         -29.4164   46.7398   -2.2396 C.ar    1  UNL1        0.0889
     36 C         -29.0984   47.8393   -1.4250 C.ar    1  UNL1        0.1543
     37 F         -27.9893   48.5793   -1.6768 F       1  UNL1       -0.2028
     38 C         -29.9332   48.1942   -0.3615 C.ar    1  UNL1        0.0310
     39 C         -31.0825   47.4482   -0.0936 C.ar    1  UNL1        0.0033
     40 C         -31.3951   46.3381   -0.8814 C.ar    1  UNL1        0.0128
     41 C         -30.5664   45.9734   -1.9496 C.ar    1  UNL1        0.0733
     42 CL        -30.9549   44.5125   -2.8506 Cl      1  UNL1       -0.0809
@<TRIPOS>BOND
     1     1     2    1
     2     2     3   ar
     3     3    33    1
     4    33    35    1
     5    35    36   ar
     6    36    37    1
     7    36    38   ar
     8    38    39   ar
     9    39    40   ar
    10    40    41   ar
    11    41    42    1
    12     3     4   ar
    13     4     5   ar
    14     5     6   ar
    15     6     7   ar
    16     7    16    1
    17    16    17    2
    18    16    18   am
    19    18    20    1
    20    20    21   ar
    21    21    22   ar
    22    22    26    1
    23    26    27    1
    24    26    28    1
    25    26    29    1
    26    22    23   ar
    27    23    24   ar
    28    24    25   ar
    29    25    30    1
    30    30    31    1
    31     7     8   ar
    32     8     9   ar
    33     9    10   ar
    34     9    11    1
    35    11    12    1
    36    12    13    1
    37    12    14    1
    38    12    15    1
    39    10     2   ar
    40    41    35   ar
    41    10     5   ar
    42    25    20   ar
    43    15     8    1
    44    33    34    1
    45    18    19    1
    46    31    32    1
@<TRIPOS>MOLECULE
*****
 42 46 0 0 0
SMALL
GASTEIGER

@<TRIPOS>ATOM
      1 C         -29.8763   46.9858   -8.1275 C.3     1  UNL1        0.1332
      2 N         -28.5608   47.4155   -7.6544 N.ar    1  UNL1       -0.2977
      3 C         -27.7676   46.8259   -6.7173 C.ar    1  UNL1        0.2018
      4 N         -26.5791   47.4599   -6.5289 N.ar    1  UNL1       -0.2135
      5 C         -26.6424   48.4845   -7.3967 C.ar    1  UNL1        0.0999
      6 C         -25.6608   49.4555   -7.6357 C.ar    1  UNL1        0.0282
      7 C         -25.9056   50.4291   -8.6375 C.ar    1  UNL1        0.0888
      8 C         -27.1436   50.3802   -9.3239 C.ar    1  UNL1        0.1401
      9 C         -28.0916   49.4185   -9.0635 C.ar    1  UNL1        0.0327
     10 C         -27.8273   48.4592   -8.0829 C.ar    1  UNL1        0.0789
     11 C         -29.2878   49.6337   -9.9236 C.3     1  UNL1        0.0709
     12 C         -28.8759   50.8796  -10.7756 C.3     1  UNL1        0.1375
     13 C         -29.8464   52.0498  -10.5688 C.3     1  UNL1        0.0439
     14 C         -28.7724   50.5272  -12.2656 C.3     1  UNL1        0.0439
     15 O         -27.5837   51.2535  -10.2960 O.3     1  UNL1       -0.4824
     16 C         -24.8968   51.4697   -8.9276 C.2     1  UNL1        0.2525
     17 O         -25.2647   52.6731   -9.0119 O.2     1  UNL1       -0.2697
     18 N         -23.5132   51.1232   -9.1118 N.am    1  UNL1       -0.2805
     19 H         -23.2085   50.1388   -8.9439 H       1  UNL1        0.1552
     20 C         -22.5181   52.0620   -9.5505 C.ar    1  UNL1        0.0488
     21 C         -21.4710   52.4240   -8.6858 C.ar    1  UNL1        0.0183
     22 C         -20.4544   53.2952   -9.1078 C.ar    1  UNL1        0.0726
     23 C         -20.4562   53.7504  -10.4342 C.ar    1  UNL1        0.0037
     24 C         -21.4835   53.3874  -11.3061 C.ar    1  UNL1       -0.0007
     25 C         -22.5377   52.5652  -10.8724 C.ar    1  UNL1        0.0204
     26 C         -19.3126   53.6382   -8.1840 C.3     1  UNL1        0.4186
     27 F         -19.0325   54.9928   -8.2378 F       1  UNL1       -0.1659
     28 F         -19.6576   53.3004   -6.8888 F       1  UNL1       -0.1659
     29 F         -18.1684   52.9460   -8.5412 F       1  UNL1       -0.1659
     30 C         -23.6331   52.1830  -11.8460 C.3     1  UNL1        0.1648
     31 O         -23.9541   50.8216  -11.7407 O.3     1  UNL1       -0.3772
     32 H         -23.1974   50.3204  -12.1441 H       1  UNL1        0.2109
     33 N         -28.1118   45.6140   -6.0289 N.pl3   1  UNL1       -0.2814
     34 H         -28.1827   44.7286   -6.5769 H       1  UNL1        0.1551
     35 C         -28.0603   45.5118   -4.5985 C.ar    1  UNL1        0.0889
     36 C         -26.8445   45.1837   -3.9756 C.ar    1  UNL1        0.1543
     37 F         -25.7271   44.9838   -4.7189 F       1  UNL1       -0.2028
     38 C         -26.7700   45.0818   -2.5835 C.ar    1  UNL1        0.0310
     39 C         -27.9087   45.2921   -1.8035 C.ar    1  UNL1        0.0033
     40 C         -29.1282   45.5942   -2.4135 C.ar    1  UNL1        0.0128
     41 C         -29.2147   45.6992   -3.8071 C.ar    1  UNL1        0.0733
     42 CL        -30.7932   45.9884   -4.5293 Cl      1  UNL1       -0.0809
@<TRIPOS>BOND
     1     1     2    1
     2     2     3   ar
     3     3    33    1
     4    33    35    1
     5    35    36   ar
     6    36    37    1
     7    36    38   ar
     8    38    39   ar
     9    39    40   ar
    10    40    41   ar
    11    41    42    1
    12     3     4   ar
    13     4     5   ar
    14     5     6   ar
    15     6     7   ar
    16     7    16    1
    17    16    17    2
    18    16    18   am
    19    18    20    1
    20    20    21   ar
    21    21    22   ar
    22    22    26    1
    23    26    27    1
    24    26    28    1
    25    26    29    1
    26    22    23   ar
    27    23    24   ar
    28    24    25   ar
    29    25    30    1
    30    30    31    1
    31     7     8   ar
    32     8     9   ar
    33     9    10   ar
    34     9    11    1
    35    11    12    1
    36    12    13    1
    37    12    14    1
    38    12    15    1
    39    10     2   ar
    40    41    35   ar
    41    10     5   ar
    42    25    20   ar
    43    15     8    1
    44    33    34    1
    45    18    19    1
    46    31    32    1
@<TRIPOS>MOLECULE
*****
 42 46 0 0 0
SMALL
GASTEIGER

@<TRIPOS>ATOM
      1 C         -21.7261   51.7205   -7.7403 C.3     1  UNL1        0.1332
      2 N         -22.1586   52.0616   -9.0951 N.ar    1  UNL1       -0.2977
      3 C         -21.4549   52.7034  -10.0687 C.ar    1  UNL1        0.2018
      4 N         -22.1357   52.8369  -11.2385 N.ar    1  UNL1       -0.2135
      5 C         -23.3119   52.2427  -10.9731 C.ar    1  UNL1        0.0999
      6 C         -24.3933   52.0740  -11.8479 C.ar    1  UNL1        0.0282
      7 C         -25.5325   51.3684  -11.3831 C.ar    1  UNL1        0.0888
      8 C         -25.5227   50.8954  -10.0480 C.ar    1  UNL1        0.1401
      9 C         -24.4485   51.0814   -9.2096 C.ar    1  UNL1        0.0327
     10 C         -23.3296   51.7666   -9.6892 C.ar    1  UNL1        0.0789
     11 C         -24.7364   50.4940   -7.8721 C.3     1  UNL1        0.0709
     12 C         -26.1660   49.8887   -8.0655 C.3     1  UNL1        0.1375
     13 C         -27.1762   50.5050   -7.0890 C.3     1  UNL1        0.0439
     14 C         -26.1489   48.3607   -7.9241 C.3     1  UNL1        0.0439
     15 O         -26.5409   50.2271   -9.4014 O.3     1  UNL1       -0.4824
     16 C         -26.6951   51.1618  -12.2722 C.2     1  UNL1        0.2525
     17 O         -26.5405   51.2739  -13.5188 O.2     1  UNL1       -0.2697
     18 N         -27.9873   50.8366  -11.7313 N.am    1  UNL1       -0.2805
     19 H         -28.0789   50.6523  -10.7078 H       1  UNL1        0.1552
     20 C         -29.1825   50.7809  -12.5268 C.ar    1  UNL1        0.0488
     21 C         -29.3776   49.7127  -13.4191 C.ar    1  UNL1        0.0183
     22 C         -30.5606   49.6033  -14.1668 C.ar    1  UNL1        0.0726
     23 C         -31.5835   50.5405  -13.9622 C.ar    1  UNL1        0.0037
     24 C         -31.4067   51.5982  -13.0692 C.ar    1  UNL1       -0.0007
     25 C         -30.2008   51.7490  -12.3630 C.ar    1  UNL1        0.0204
     26 C         -30.7751   48.4269  -15.0859 C.3     1  UNL1        0.4186
     27 F         -31.5663   48.7880  -16.1629 F       1  UNL1       -0.1659
     28 F         -29.5515   47.9854  -15.5535 F       1  UNL1       -0.1659
     29 F         -31.4030   47.3905  -14.4169 F       1  UNL1       -0.1659
     30 C         -30.0439   52.9033  -11.3951 C.3     1  UNL1        0.1648
     31 O         -29.7582   54.0983  -12.0718 O.3     1  UNL1       -0.3772
     32 H         -28.8202   54.0259  -12.3902 H       1  UNL1        0.2109
     33 N         -20.0990   53.1483   -9.9113 N.pl3   1  UNL1       -0.2814
     34 H         -19.3772   52.8046  -10.5823 H       1  UNL1        0.1551
     35 C         -19.7577   54.2651   -9.0774 C.ar    1  UNL1        0.0889
     36 C         -20.3278   55.5214   -9.3428 C.ar    1  UNL1        0.1543
     37 F         -21.2060   55.6718  -10.3660 F       1  UNL1       -0.2028
     38 C         -20.0123   56.6227   -8.5417 C.ar    1  UNL1        0.0310
     39 C         -19.1166   56.4833   -7.4800 C.ar    1  UNL1        0.0033
     40 C         -18.5247   55.2448   -7.2224 C.ar    1  UNL1        0.0128
     41 C         -18.8333   54.1346   -8.0179 C.ar    1  UNL1        0.0733
     42 CL        -17.9887   52.6218   -7.7094 Cl      1  UNL1       -0.0809
@<TRIPOS>BOND
     1     1     2    1
     2     2     3   ar
     3     3    33    1
     4    33    35    1
     5    35    36   ar
     6    36    37    1
     7    36    38   ar
     8    38    39   ar
     9    39    40   ar
    10    40    41   ar
    11    41    42    1
    12     3     4   ar
    13     4     5   ar
    14     5     6   ar
    15     6     7   ar
    16     7    16    1
    17    16    17    2
    18    16    18   am
    19    18    20    1
    20    20    21   ar
    21    21    22   ar
    22    22    26    1
    23    26    27    1
    24    26    28    1
    25    26    29    1
    26    22    23   ar
    27    23    24   ar
    28    24    25   ar
    29    25    30    1
    30    30    31    1
    31     7     8   ar
    32     8     9   ar
    33     9    10   ar
    34     9    11    1
    35    11    12    1
    36    12    13    1
    37    12    14    1
    38    12    15    1
    39    10     2   ar
    40    41    35   ar
    41    10     5   ar
    42    25    20   ar
    43    15     8    1
    44    33    34    1
    45    18    19    1
    46    31    32    1
@<TRIPOS>MOLECULE
*****
 42 46 0 0 0
SMALL
GASTEIGER

@<TRIPOS>ATOM
      1 C         -29.7464   49.0292   -7.0363 C.3     1  UNL1        0.1332
      2 N         -28.3040   49.1993   -6.8644 N.ar    1  UNL1       -0.2977
      3 C         -27.5168   48.7488   -5.8484 C.ar    1  UNL1        0.2018
      4 N         -26.1988   49.0463   -6.0040 N.ar    1  UNL1       -0.2135
      5 C         -26.1741   49.7055   -7.1752 C.ar    1  UNL1        0.0999
      6 C         -25.0511   50.2260   -7.8319 C.ar    1  UNL1        0.0282
      7 C         -25.2357   50.8468   -9.0937 C.ar    1  UNL1        0.0888
      8 C         -26.5529   50.9288   -9.6081 C.ar    1  UNL1        0.1401
      9 C         -27.6377   50.4141   -8.9376 C.ar    1  UNL1        0.0327
     10 C         -27.4349   49.7938   -7.7024 C.ar    1  UNL1        0.0789
     11 C         -28.8841   50.6659   -9.7124 C.3     1  UNL1        0.0709
     12 C         -28.3506   51.3955  -10.9894 C.3     1  UNL1        0.1375
     13 C         -28.9662   52.7929  -11.1389 C.3     1  UNL1        0.0439
     14 C         -28.6010   50.5625  -12.2537 C.3     1  UNL1        0.0439
     15 O         -26.9423   51.5240  -10.7893 O.3     1  UNL1       -0.4824
     16 C         -24.0795   51.4058   -9.8255 C.2     1  UNL1        0.2525
     17 O         -23.9483   51.1474  -11.0529 O.2     1  UNL1       -0.2697
     18 N         -23.1140   52.2341   -9.1548 N.am    1  UNL1       -0.2805
     19 H         -23.2871   52.5181   -8.1652 H       1  UNL1        0.1552
     20 C         -21.8915   52.6732   -9.7689 C.ar    1  UNL1        0.0488
     21 C         -20.6732   52.0750   -9.4039 C.ar    1  UNL1        0.0183
     22 C         -19.4716   52.4449  -10.0281 C.ar    1  UNL1        0.0726
     23 C         -19.5082   53.3755  -11.0764 C.ar    1  UNL1        0.0037
     24 C         -20.7138   53.9667  -11.4567 C.ar    1  UNL1       -0.0007
     25 C         -21.9117   53.6470  -10.7948 C.ar    1  UNL1        0.0204
     26 C         -18.1789   51.7614   -9.6582 C.3     1  UNL1        0.4186
     27 F         -17.5753   52.4052   -8.5917 F       1  UNL1       -0.1659
     28 F         -18.4417   50.4514   -9.3037 F       1  UNL1       -0.1659
     29 F         -17.2965   51.7720  -10.7246 F       1  UNL1       -0.1659
     30 C         -23.2045   54.3003  -11.2372 C.3     1  UNL1        0.1648
     31 O         -23.7232   55.1313  -10.2333 O.3     1  UNL1       -0.3772
     32 H         -24.0791   54.5321   -9.5258 H       1  UNL1        0.2109
     33 N         -28.0069   47.9774   -4.7413 N.pl3   1  UNL1       -0.2814
     34 H         -29.0145   48.0574   -4.4811 H       1  UNL1        0.1551
     35 C         -27.2574   46.8886   -4.1828 C.ar    1  UNL1        0.0889
     36 C         -27.4829   45.5847   -4.6547 C.ar    1  UNL1        0.1543
     37 F         -28.3872   45.3610   -5.6412 F       1  UNL1       -0.2028
     38 C         -26.7621   44.5092   -4.1277 C.ar    1  UNL1        0.0310
     39 C         -25.8223   44.7231   -3.1177 C.ar    1  UNL1        0.0033
     40 C         -25.6079   46.0117   -2.6235 C.ar    1  UNL1        0.0128
     41 C         -26.3238   47.0967   -3.1440 C.ar    1  UNL1        0.0733
     42 CL        -26.0837   48.6832   -2.4213 Cl      1  UNL1       -0.0809
@<TRIPOS>BOND
     1     1     2    1
     2     2     3   ar
     3     3    33    1
     4    33    35    1
     5    35    36   ar
     6    36    37    1
     7    36    38   ar
     8    38    39   ar
     9    39    40   ar
    10    40    41   ar
    11    41    42    1
    12     3     4   ar
    13     4     5   ar
    14     5     6   ar
    15     6     7   ar
    16     7    16    1
    17    16    17    2
    18    16    18   am
    19    18    20    1
    20    20    21   ar
    21    21    22   ar
    22    22    26    1
    23    26    27    1
    24    26    28    1
    25    26    29    1
    26    22    23   ar
    27    23    24   ar
    28    24    25   ar
    29    25    30    1
    30    30    31    1
    31     7     8   ar
    32     8     9   ar
    33     9    10   ar
    34     9    11    1
    35    11    12    1
    36    12    13    1
    37    12    14    1
    38    12    15    1
    39    10     2   ar
    40    41    35   ar
    41    10     5   ar
    42    25    20   ar
    43    15     8    1
    44    33    34    1
    45    18    19    1
    46    31    32    1
@<TRIPOS>MOLECULE
*****
 42 46 0 0 0
SMALL
GASTEIGER

@<TRIPOS>ATOM
      1 C         -21.3543   52.0834   -7.7140 C.3     1  UNL1        0.1332
      2 N         -21.8775   52.3834   -9.0464 N.ar    1  UNL1       -0.2977
      3 C         -21.2697   53.0635  -10.0578 C.ar    1  UNL1        0.2018
      4 N         -22.0167   53.1410  -11.1917 N.ar    1  UNL1       -0.2135
      5 C         -23.1346   52.4705  -10.8634 C.ar    1  UNL1        0.0999
      6 C         -24.2452   52.2218  -11.6807 C.ar    1  UNL1        0.0282
      7 C         -25.3085   51.4443  -11.1547 C.ar    1  UNL1        0.0888
      8 C         -25.1985   50.9839   -9.8198 C.ar    1  UNL1        0.1401
      9 C         -24.0982   51.2492   -9.0386 C.ar    1  UNL1        0.0327
     10 C         -23.0544   52.0048   -9.5781 C.ar    1  UNL1        0.0789
     11 C         -24.2768   50.6544   -7.6853 C.3     1  UNL1        0.0709
     12 C         -25.6698   49.9519   -7.8022 C.3     1  UNL1        0.1375
     13 C         -26.6686   50.5062   -6.7779 C.3     1  UNL1        0.0439
     14 C         -25.5414   48.4299   -7.6548 C.3     1  UNL1        0.0439
     15 O         -26.1344   50.2533   -9.1187 O.3     1  UNL1       -0.4824
     16 C         -26.4981   51.1521  -11.9820 C.2     1  UNL1        0.2525
     17 O         -26.3731   51.0933  -13.2356 O.2     1  UNL1       -0.2697
     18 N         -27.7831   50.9359  -11.3737 N.am    1  UNL1       -0.2805
     19 H         -27.8525   50.8919  -10.3329 H       1  UNL1        0.1552
     20 C         -28.9993   50.8066  -12.1276 C.ar    1  UNL1        0.0488
     21 C         -29.3037   49.5875  -12.7572 C.ar    1  UNL1        0.0183
     22 C         -30.5109   49.4156  -13.4526 C.ar    1  UNL1        0.0726
     23 C         -31.4488   50.4580  -13.4548 C.ar    1  UNL1        0.0037
     24 C         -31.1636   51.6686  -12.8220 C.ar    1  UNL1       -0.0007
     25 C         -29.9314   51.8696  -12.1764 C.ar    1  UNL1        0.0204
     26 C         -30.8439   48.0870  -14.0840 C.3     1  UNL1        0.4186
     27 F         -29.6877   47.3997  -14.4114 F       1  UNL1       -0.1659
     28 F         -31.5805   47.3306  -13.1917 F       1  UNL1       -0.1659
     29 F         -31.5824   48.2657  -15.2410 F       1  UNL1       -0.1659
     30 C         -29.6561   53.1925  -11.4922 C.3     1  UNL1        0.1648
     31 O         -29.7998   54.2654  -12.3842 O.3     1  UNL1       -0.3772
     32 H         -29.0167   54.2331  -12.9941 H       1  UNL1        0.2109
     33 N         -19.9411   53.6006   -9.9724 N.pl3   1  UNL1       -0.2814
     34 H         -19.8197   54.6369   -9.9447 H       1  UNL1        0.1551
     35 C         -18.8136   52.7865   -9.6183 C.ar    1  UNL1        0.0889
     36 C         -18.2353   52.9284   -8.3458 C.ar    1  UNL1        0.1543
     37 F         -18.7499   53.8133   -7.4552 F       1  UNL1       -0.2028
     38 C         -17.1386   52.1437   -7.9779 C.ar    1  UNL1        0.0310
     39 C         -16.6019   51.2228   -8.8796 C.ar    1  UNL1        0.0033
     40 C         -17.1530   51.0911  -10.1560 C.ar    1  UNL1        0.0128
     41 C         -18.2520   51.8715  -10.5355 C.ar    1  UNL1        0.0733
     42 CL        -18.8477   51.7338  -12.1857 Cl      1  UNL1       -0.0809
@<TRIPOS>BOND
     1     1     2    1
     2     2     3   ar
     3     3    33    1
     4    33    35    1
     5    35    36   ar
     6    36    37    1
     7    36    38   ar
     8    38    39   ar
     9    39    40   ar
    10    40    41   ar
    11    41    42    1
    12     3     4   ar
    13     4     5   ar
    14     5     6   ar
    15     6     7   ar
    16     7    16    1
    17    16    17    2
    18    16    18   am
    19    18    20    1
    20    20    21   ar
    21    21    22   ar
    22    22    26    1
    23    26    27    1
    24    26    28    1
    25    26    29    1
    26    22    23   ar
    27    23    24   ar
    28    24    25   ar
    29    25    30    1
    30    30    31    1
    31     7     8   ar
    32     8     9   ar
    33     9    10   ar
    34     9    11    1
    35    11    12    1
    36    12    13    1
    37    12    14    1
    38    12    15    1
    39    10     2   ar
    40    41    35   ar
    41    10     5   ar
    42    25    20   ar
    43    15     8    1
    44    33    34    1
    45    18    19    1
    46    31    32    1
