@<TRIPOS>MOLECULE
*****
 38 42 0 0 0
SMALL
GASTEIGER

@<TRIPOS>ATOM
      1 C          49.8378   11.5541  -21.7282 C.2     1  UNL1        0.2506
      2 O          50.7847   10.8284  -22.1378 O.2     1  UNL1       -0.2699
      3 N          49.0076   12.2545  -22.6760 N.am    1  UNL1       -0.2680
      4 C          48.5317   13.6084  -22.3719 C.3     1  UNL1        0.1412
      5 C          47.0533   13.5738  -21.9890 C.3     1  UNL1        0.2269
      6 O          46.3660   12.5138  -22.6512 O.3     1  UNL1       -0.4716
      7 C          46.3886   12.3609  -24.0395 C.ar    1  UNL1        0.1634
      8 C          45.1865   12.5011  -24.7414 C.ar    1  UNL1        0.1735
      9 F          44.0373   12.7649  -24.0705 F       1  UNL1       -0.2010
     10 C          45.1604   12.3894  -26.1316 C.ar    1  UNL1        0.0328
     11 C          46.3368   12.1172  -26.8462 C.ar    1  UNL1        0.0022
     12 C          47.5400   11.9502  -26.1391 C.ar    1  UNL1        0.0005
     13 C          47.5856   12.0715  -24.7390 C.ar    1  UNL1        0.0339
     14 C          48.8991   11.7413  -24.0493 C.3     1  UNL1        0.1236
     15 C          46.3060   11.9923  -28.3253 C.ar    1  UNL1        0.0016
     16 C          46.5617   10.7386  -28.9489 C.ar    1  UNL1        0.0016
     17 C          46.5353   10.6111  -30.3504 C.ar    1  UNL1        0.0206
     18 C          46.2515   11.7481  -31.0992 C.ar    1  UNL1        0.0985
     19 N          46.1771   11.8554  -32.4379 N.ar    1  UNL1       -0.2241
     20 C          45.8772   13.1688  -32.6193 C.ar    1  UNL1        0.1750
     21 N          45.7662   13.8628  -31.4611 N.ar    1  UNL1       -0.3349
     22 C          46.0047   12.9501  -30.5122 C.ar    1  UNL1        0.0757
     23 C          46.0201   13.1216  -29.1308 C.ar    1  UNL1        0.0185
     24 H          45.5451   14.8762  -31.3405 H       1  UNL1        0.1675
     25 C          50.5967   12.0786  -19.3773 C.ar    1  UNL1        0.0503
     26 C          50.3111   12.1016  -17.9974 C.ar    1  UNL1        0.0328
     27 C          49.0590   11.6995  -17.5167 C.ar    1  UNL1        0.1069
     28 C          48.0727   11.2834  -18.4150 C.ar    1  UNL1        0.0186
     29 C          48.3386   11.2537  -19.7831 C.ar    1  UNL1        0.0071
     30 C          49.5895   11.6518  -20.2762 C.ar    1  UNL1        0.0667
     31 S          48.7178   11.7561  -15.7904 S.O2    1  UNL1        0.0105
     32 C          50.2225   11.4821  -14.8836 C.3     1  UNL1        0.1816
     33 O          47.7148   10.6943  -15.4360 O.2     1  UNL1       -0.1686
     34 O          48.1488   13.0983  -15.4243 O.2     1  UNL1       -0.1686
     35 N          51.8737   12.5344  -19.8748 N.pl3   1  UNL1       -0.3325
     36 H          52.6118   11.8295  -20.0980 H       1  UNL1        0.1468
     37 C          52.4753   14.2221  -21.5631 C.3     1  UNL1        0.0229
     38 C          52.2261   13.9398  -20.0848 C.3     1  UNL1        0.0871
@<TRIPOS>BOND
     1    37    38    1
     2    38    35    1
     3    35    25    1
     4    25    26   ar
     5    26    27   ar
     6    27    31    1
     7    31    32    1
     8    31    33    2
     9    31    34    2
    10    27    28   ar
    11    28    29   ar
    12    29    30   ar
    13    30     1    1
    14     1     2    2
    15     1     3   am
    16     3     4    1
    17     4     5    1
    18     5     6    1
    19     6     7    1
    20     7     8   ar
    21     8     9    1
    22     8    10   ar
    23    10    11   ar
    24    11    15    1
    25    15    16   ar
    26    16    17   ar
    27    17    18   ar
    28    18    19   ar
    29    19    20   ar
    30    20    21   ar
    31    21    22   ar
    32    22    23   ar
    33    11    12   ar
    34    12    13   ar
    35    13    14    1
    36    30    25   ar
    37    14     3    1
    38    13     7   ar
    39    23    15   ar
    40    22    18   ar
    41    35    36    1
    42    21    24    1
@<TRIPOS>MOLECULE
*****
 38 42 0 0 0
SMALL
GASTEIGER

@<TRIPOS>ATOM
      1 C          50.0524   12.1399  -22.0988 C.2     1  UNL1        0.2506
      2 O          51.1263   11.6649  -22.5594 O.2     1  UNL1       -0.2699
      3 N          49.0597   12.6746  -22.9970 N.am    1  UNL1       -0.2680
      4 C          48.3004   13.8718  -22.6200 C.3     1  UNL1        0.1412
      5 C          46.8789   13.4879  -22.2131 C.3     1  UNL1        0.2269
      6 O          46.4292   12.3294  -22.9131 O.3     1  UNL1       -0.4716
      7 C          46.4467   12.2450  -24.3073 C.ar    1  UNL1        0.1634
      8 C          45.2246   12.1400  -24.9803 C.ar    1  UNL1        0.1735
      9 F          44.0648   12.1086  -24.2773 F       1  UNL1       -0.2010
     10 C          45.1852   12.0848  -26.3736 C.ar    1  UNL1        0.0328
     11 C          46.3722   12.1161  -27.1211 C.ar    1  UNL1        0.0022
     12 C          47.6015   12.1950  -26.4442 C.ar    1  UNL1        0.0005
     13 C          47.6579   12.2635  -25.0410 C.ar    1  UNL1        0.0339
     14 C          49.0309   12.2093  -24.3912 C.3     1  UNL1        0.1236
     15 C          46.3288   12.0508  -28.6038 C.ar    1  UNL1        0.0016
     16 C          46.5973   10.8275  -29.2801 C.ar    1  UNL1        0.0016
     17 C          46.5591   10.7566  -30.6854 C.ar    1  UNL1        0.0206
     18 C          46.2508   11.9185  -31.3846 C.ar    1  UNL1        0.0985
     19 N          46.1616   12.0788  -32.7172 N.ar    1  UNL1       -0.2241
     20 C          45.8402   13.3937  -32.8421 C.ar    1  UNL1        0.1750
     21 N          45.7301   14.0384  -31.6557 N.ar    1  UNL1       -0.3349
     22 C          45.9916   13.0917  -30.7469 C.ar    1  UNL1        0.0757
     23 C          46.0179   13.2073  -29.3599 C.ar    1  UNL1        0.0185
     24 H          45.4949   15.0425  -31.4919 H       1  UNL1        0.1675
     25 C          49.6455   10.9026  -19.9351 C.ar    1  UNL1        0.0503
     26 C          49.3863   10.9522  -18.5507 C.ar    1  UNL1        0.0328
     27 C          49.2991   12.1783  -17.8803 C.ar    1  UNL1        0.1069
     28 C          49.4856   13.3694  -18.5869 C.ar    1  UNL1        0.0186
     29 C          49.7419   13.3386  -19.9568 C.ar    1  UNL1        0.0071
     30 C          49.8293   12.1169  -20.6396 C.ar    1  UNL1        0.0667
     31 S          48.9948   12.2153  -16.1466 S.O2    1  UNL1        0.0105
     32 C          50.5454   12.2127  -15.2765 C.3     1  UNL1        0.1816
     33 O          48.1898   11.0106  -15.7466 O.2     1  UNL1       -0.1686
     34 O          48.2206   13.4530  -15.7885 O.2     1  UNL1       -0.1686
     35 N          49.7778    9.6361  -20.6167 N.pl3   1  UNL1       -0.3325
     36 H          50.5613    8.9975  -20.3526 H       1  UNL1        0.1468
     37 C          47.4288    9.4611  -21.3323 C.3     1  UNL1        0.0229
     38 C          48.8855    9.1719  -21.6807 C.3     1  UNL1        0.0871
@<TRIPOS>BOND
     1    37    38    1
     2    38    35    1
     3    35    25    1
     4    25    26   ar
     5    26    27   ar
     6    27    31    1
     7    31    32    1
     8    31    33    2
     9    31    34    2
    10    27    28   ar
    11    28    29   ar
    12    29    30   ar
    13    30     1    1
    14     1     2    2
    15     1     3   am
    16     3     4    1
    17     4     5    1
    18     5     6    1
    19     6     7    1
    20     7     8   ar
    21     8     9    1
    22     8    10   ar
    23    10    11   ar
    24    11    15    1
    25    15    16   ar
    26    16    17   ar
    27    17    18   ar
    28    18    19   ar
    29    19    20   ar
    30    20    21   ar
    31    21    22   ar
    32    22    23   ar
    33    11    12   ar
    34    12    13   ar
    35    13    14    1
    36    30    25   ar
    37    14     3    1
    38    13     7   ar
    39    23    15   ar
    40    22    18   ar
    41    35    36    1
    42    21    24    1
@<TRIPOS>MOLECULE
*****
 38 42 0 0 0
SMALL
GASTEIGER

@<TRIPOS>ATOM
      1 C          48.9453   10.5096  -21.2714 C.2     1  UNL1        0.2506
      2 O          49.0946    9.2814  -21.5165 O.2     1  UNL1       -0.2699
      3 N          48.8105   11.4479  -22.3575 N.am    1  UNL1       -0.2680
      4 C          49.4332   12.7727  -22.2618 C.3     1  UNL1        0.1412
      5 C          48.3712   13.8354  -21.9857 C.3     1  UNL1        0.2269
      6 O          47.1137   13.4793  -22.5569 O.3     1  UNL1       -0.4716
      7 C          46.9707   13.1612  -23.9096 C.ar    1  UNL1        0.1634
      8 C          46.1875   14.0010  -24.7087 C.ar    1  UNL1        0.1735
      9 F          45.5799   15.0834  -24.1614 F       1  UNL1       -0.2010
     10 C          46.0386   13.7456  -26.0720 C.ar    1  UNL1        0.0328
     11 C          46.6581   12.6321  -26.6595 C.ar    1  UNL1        0.0022
     12 C          47.4235   11.7735  -25.8517 C.ar    1  UNL1        0.0005
     13 C          47.5933   12.0234  -24.4785 C.ar    1  UNL1        0.0339
     14 C          48.3220   10.9707  -23.6594 C.3     1  UNL1        0.1236
     15 C          46.4933   12.3581  -28.1094 C.ar    1  UNL1        0.0016
     16 C          46.6464   11.0368  -28.6158 C.ar    1  UNL1        0.0016
     17 C          46.4926   10.7680  -29.9889 C.ar    1  UNL1        0.0206
     18 C          46.1871   11.8344  -30.8276 C.ar    1  UNL1        0.0985
     19 N          45.9998   11.8075  -32.1593 N.ar    1  UNL1       -0.2241
     20 C          45.7346   13.1080  -32.4531 C.ar    1  UNL1        0.1750
     21 N          45.7515   13.9212  -31.3697 N.ar    1  UNL1       -0.3349
     22 C          46.0377   13.1003  -30.3526 C.ar    1  UNL1        0.0757
     23 C          46.1804   13.4112  -29.0033 C.ar    1  UNL1        0.0185
     24 H          45.5798   14.9508  -31.3391 H       1  UNL1        0.1675
     25 C          47.6679   11.3000  -19.2412 C.ar    1  UNL1        0.0503
     26 C          47.6905   11.7670  -17.9117 C.ar    1  UNL1        0.0328
     27 C          48.8995   11.9016  -17.2186 C.ar    1  UNL1        0.1069
     28 C          50.0998   11.5553  -17.8450 C.ar    1  UNL1        0.0186
     29 C          50.0957   11.0925  -19.1599 C.ar    1  UNL1        0.0071
     30 C          48.8914   10.9557  -19.8651 C.ar    1  UNL1        0.0667
     31 S          48.9016   12.4675  -15.5514 S.O2    1  UNL1        0.0105
     32 C          50.5798   12.6267  -14.9859 C.3     1  UNL1        0.1816
     33 O          48.1669   11.4865  -14.6813 O.2     1  UNL1       -0.1686
     34 O          48.2135   13.8009  -15.4621 O.2     1  UNL1       -0.1686
     35 N          46.4166   11.1211  -19.9400 N.pl3   1  UNL1       -0.3325
     36 H          46.2187   10.2036  -20.3987 H       1  UNL1        0.1468
     37 C          44.2220   11.8776  -19.1202 C.3     1  UNL1        0.0229
     38 C          45.3855   12.1526  -20.0677 C.3     1  UNL1        0.0871
@<TRIPOS>BOND
     1    37    38    1
     2    38    35    1
     3    35    25    1
     4    25    26   ar
     5    26    27   ar
     6    27    31    1
     7    31    32    1
     8    31    33    2
     9    31    34    2
    10    27    28   ar
    11    28    29   ar
    12    29    30   ar
    13    30     1    1
    14     1     2    2
    15     1     3   am
    16     3     4    1
    17     4     5    1
    18     5     6    1
    19     6     7    1
    20     7     8   ar
    21     8     9    1
    22     8    10   ar
    23    10    11   ar
    24    11    15    1
    25    15    16   ar
    26    16    17   ar
    27    17    18   ar
    28    18    19   ar
    29    19    20   ar
    30    20    21   ar
    31    21    22   ar
    32    22    23   ar
    33    11    12   ar
    34    12    13   ar
    35    13    14    1
    36    30    25   ar
    37    14     3    1
    38    13     7   ar
    39    23    15   ar
    40    22    18   ar
    41    35    36    1
    42    21    24    1
