@<TRIPOS>MOLECULE
*****
 48 53 0 0 0
SMALL
GASTEIGER

@<TRIPOS>ATOM
      1 C         -61.7846  -41.8840  -20.7882 C.2     1  UNL1        0.2483
      2 O         -60.7862  -41.8692  -20.0170 O.2     1  UNL1       -0.2701
      3 N         -63.1026  -41.6874  -20.2512 N.am    1  UNL1       -0.2945
      4 H         -63.9283  -41.9247  -20.8466 H       1  UNL1        0.1501
      5 C         -61.1434  -42.6132  -24.9792 C.ar    1  UNL1        0.0502
      6 C         -60.1014  -42.7799  -24.0540 C.ar    1  UNL1        0.0148
      7 C         -60.3165  -42.5362  -22.6952 C.ar    1  UNL1        0.0080
      8 C         -61.5808  -42.1340  -22.2327 C.ar    1  UNL1        0.0808
      9 C         -62.6229  -41.9534  -23.1632 C.ar    1  UNL1        0.1457
     10 F         -63.8400  -41.4984  -22.7716 F       1  UNL1       -0.2040
     11 C         -62.4027  -42.1966  -24.5227 C.ar    1  UNL1        0.0443
     12 N         -61.0494  -43.1815  -29.1368 N.pl3   1  UNL1       -0.3041
     13 C         -60.9855  -41.8179  -28.5978 C.3     1  UNL1        0.1122
     14 C         -60.3146  -41.8327  -27.2257 C.3     1  UNL1        0.1122
     15 N         -60.9284  -42.8641  -26.3809 N.pl3   1  UNL1       -0.3040
     16 C         -61.0041  -44.2304  -26.9127 C.3     1  UNL1        0.1122
     17 C         -61.6547  -44.2231  -28.2981 C.3     1  UNL1        0.1122
     18 C         -58.0727  -44.7540  -32.8135 C.3     1  UNL1        0.0320
     19 C         -59.3833  -44.1723  -32.3584 C.ar    1  UNL1       -0.0092
     20 C         -59.6075  -43.9496  -30.9899 C.ar    1  UNL1        0.0112
     21 C         -60.8233  -43.4124  -30.5402 C.ar    1  UNL1        0.0485
     22 C         -61.8187  -43.0937  -31.4732 C.ar    1  UNL1        0.0267
     23 C         -61.6106  -43.3096  -32.8384 C.ar    1  UNL1        0.0691
     24 CL        -62.8958  -42.8871  -33.9632 Cl      1  UNL1       -0.0813
     25 C         -60.3934  -43.8504  -33.2894 C.ar    1  UNL1        0.0643
     26 CL        -60.1390  -44.1212  -35.0156 Cl      1  UNL1       -0.0817
     27 C         -63.3177  -41.2310  -18.8740 C.3     1  UNL1        0.1535
     28 C         -63.1508  -39.7344  -18.7983 C.2     1  UNL1        0.2443
     29 O         -62.8487  -39.1981  -17.6972 O.2     1  UNL1       -0.2730
     30 N         -63.2343  -38.9460  -19.9965 N.am    1  UNL1       -0.2825
     31 H         -63.2437  -39.4502  -20.9121 H       1  UNL1        0.1549
     32 C         -63.1314  -37.5135  -20.0229 C.ar    1  UNL1        0.0535
     33 C         -63.9874  -36.7471  -19.2206 C.ar    1  UNL1        0.0353
     34 C         -63.8779  -35.3546  -19.2278 C.ar    1  UNL1        0.1002
     35 N         -62.9350  -34.7487  -19.9970 N.ar    1  UNL1       -0.2422
     36 C         -62.0785  -35.4667  -20.7708 C.ar    1  UNL1        0.1002
     37 C         -62.1550  -36.8616  -20.7940 C.ar    1  UNL1        0.0353
     38 C         -64.7180  -41.6455  -18.3825 C.3     1  UNL1        0.0569
     39 C         -65.5973  -42.0855  -19.5190 C.ar    1  UNL1       -0.0017
     40 C         -65.8971  -43.3981  -19.8730 C.ar    1  UNL1        0.0681
     41 N         -66.6179  -43.4258  -21.0170 N.ar    1  UNL1       -0.3523
     42 C         -66.7652  -42.1439  -21.3944 C.ar    1  UNL1        0.0563
     43 C         -67.4109  -41.6676  -22.5345 C.ar    1  UNL1        0.0170
     44 C         -67.4182  -40.2778  -22.7537 C.ar    1  UNL1        0.0015
     45 C         -66.7827  -39.4059  -21.8417 C.ar    1  UNL1        0.0001
     46 C         -66.1353  -39.9153  -20.7015 C.ar    1  UNL1        0.0012
     47 C         -66.1517  -41.2966  -20.5074 C.ar    1  UNL1        0.0131
     48 H         -66.9660  -44.2745  -21.5159 H       1  UNL1        0.1660
@<TRIPOS>BOND
     1    18    19    1
     2    19    20   ar
     3    20    21   ar
     4    21    12    1
     5    12    13    1
     6    13    14    1
     7    14    15    1
     8    15     5    1
     9     5     6   ar
    10     6     7   ar
    11     7     8   ar
    12     8     1    1
    13     1     2    2
    14     1     3   am
    15     3    27    1
    16    27    38    1
    17    38    39    1
    18    39    40   ar
    19    40    41   ar
    20    41    42   ar
    21    42    43   ar
    22    43    44   ar
    23    44    45   ar
    24    45    46   ar
    25    46    47   ar
    26    27    28    1
    27    28    29    2
    28    28    30   am
    29    30    32    1
    30    32    33   ar
    31    33    34   ar
    32    34    35   ar
    33    35    36   ar
    34    36    37   ar
    35     8     9   ar
    36     9    10    1
    37     9    11   ar
    38    15    16    1
    39    16    17    1
    40    21    22   ar
    41    22    23   ar
    42    23    24    1
    43    23    25   ar
    44    25    26    1
    45    25    19   ar
    46    17    12    1
    47    11     5   ar
    48    47    39   ar
    49    37    32   ar
    50    47    42   ar
    51     3     4    1
    52    41    48    1
    53    30    31    1
@<TRIPOS>MOLECULE
*****
 48 53 0 0 0
SMALL
GASTEIGER

@<TRIPOS>ATOM
      1 C         -61.7541  -42.1022  -20.7622 C.2     1  UNL1        0.2483
      2 O         -60.8422  -42.4327  -19.9554 O.2     1  UNL1       -0.2701
      3 N         -62.9823  -41.5496  -20.2619 N.am    1  UNL1       -0.2945
      4 H         -63.8058  -41.4930  -20.9031 H       1  UNL1        0.1501
      5 C         -61.1177  -42.7343  -24.9698 C.ar    1  UNL1        0.0502
      6 C         -60.0789  -42.9374  -24.0482 C.ar    1  UNL1        0.0148
      7 C         -60.2924  -42.7251  -22.6839 C.ar    1  UNL1        0.0080
      8 C         -61.5519  -42.3185  -22.2125 C.ar    1  UNL1        0.0808
      9 C         -62.5906  -42.1014  -23.1389 C.ar    1  UNL1        0.1457
     10 F         -63.8023  -41.6410  -22.7369 F       1  UNL1       -0.2040
     11 C         -62.3721  -42.3132  -24.5039 C.ar    1  UNL1        0.0443
     12 N         -61.0461  -43.2747  -29.1315 N.pl3   1  UNL1       -0.3041
     13 C         -61.1392  -41.9151  -28.5864 C.3     1  UNL1        0.1122
     14 C         -60.4414  -41.8509  -27.2292 C.3     1  UNL1        0.1122
     15 N         -60.9044  -42.9527  -26.3771 N.pl3   1  UNL1       -0.3040
     16 C         -60.8226  -44.3163  -26.9148 C.3     1  UNL1        0.1122
     17 C         -61.4995  -44.3855  -28.2858 C.3     1  UNL1        0.1122
     18 C         -62.7193  -43.0553  -33.8224 C.3     1  UNL1        0.0320
     19 C         -61.6214  -43.3778  -32.8456 C.ar    1  UNL1       -0.0092
     20 C         -61.8342  -43.1829  -31.4711 C.ar    1  UNL1        0.0112
     21 C         -60.8243  -43.4718  -30.5407 C.ar    1  UNL1        0.0485
     22 C         -59.5936  -43.9632  -30.9954 C.ar    1  UNL1        0.0267
     23 C         -59.3666  -44.1623  -32.3602 C.ar    1  UNL1        0.0691
     24 CL        -57.8025  -44.7846  -32.8716 Cl      1  UNL1       -0.0813
     25 C         -60.3774  -43.8705  -33.2932 C.ar    1  UNL1        0.0643
     26 CL        -60.0821  -44.1237  -35.0156 Cl      1  UNL1       -0.0817
     27 C         -63.1300  -41.1296  -18.8644 C.3     1  UNL1        0.1535
     28 C         -63.0753  -39.6256  -18.7729 C.2     1  UNL1        0.2443
     29 O         -62.9061  -39.0774  -17.6495 O.2     1  UNL1       -0.2730
     30 N         -63.1120  -38.8364  -19.9729 N.am    1  UNL1       -0.2825
     31 H         -63.0083  -39.3335  -20.8867 H       1  UNL1        0.1549
     32 C         -63.1079  -37.4001  -19.9888 C.ar    1  UNL1        0.0535
     33 C         -62.1374  -36.7228  -20.7392 C.ar    1  UNL1        0.0353
     34 C         -62.1415  -35.3264  -20.7738 C.ar    1  UNL1        0.1002
     35 N         -63.0921  -34.6303  -20.0959 N.ar    1  UNL1       -0.2422
     36 C         -64.0573  -35.2601  -19.3750 C.ar    1  UNL1        0.1002
     37 C         -64.0885  -36.6555  -19.3127 C.ar    1  UNL1        0.0353
     38 C         -64.4534  -41.6602  -18.2802 C.3     1  UNL1        0.0569
     39 C         -65.3849  -42.1361  -19.3592 C.ar    1  UNL1       -0.0017
     40 C         -65.6892  -43.4596  -19.6653 C.ar    1  UNL1        0.0681
     41 N         -66.4670  -43.5221  -20.7699 N.ar    1  UNL1       -0.3523
     42 C         -66.6461  -42.2513  -21.1705 C.ar    1  UNL1        0.0563
     43 C         -67.3537  -41.8092  -22.2874 C.ar    1  UNL1        0.0170
     44 C         -67.3861  -40.4255  -22.5398 C.ar    1  UNL1        0.0015
     45 C         -66.7137  -39.5255  -21.6831 C.ar    1  UNL1        0.0001
     46 C         -66.0041  -40.0008  -20.5653 C.ar    1  UNL1        0.0012
     47 C         -65.9968  -41.3769  -20.3370 C.ar    1  UNL1        0.0131
     48 H         -66.8315  -44.3860  -21.2295 H       1  UNL1        0.1660
@<TRIPOS>BOND
     1    18    19    1
     2    19    20   ar
     3    20    21   ar
     4    21    12    1
     5    12    13    1
     6    13    14    1
     7    14    15    1
     8    15     5    1
     9     5     6   ar
    10     6     7   ar
    11     7     8   ar
    12     8     1    1
    13     1     2    2
    14     1     3   am
    15     3    27    1
    16    27    38    1
    17    38    39    1
    18    39    40   ar
    19    40    41   ar
    20    41    42   ar
    21    42    43   ar
    22    43    44   ar
    23    44    45   ar
    24    45    46   ar
    25    46    47   ar
    26    27    28    1
    27    28    29    2
    28    28    30   am
    29    30    32    1
    30    32    33   ar
    31    33    34   ar
    32    34    35   ar
    33    35    36   ar
    34    36    37   ar
    35     8     9   ar
    36     9    10    1
    37     9    11   ar
    38    15    16    1
    39    16    17    1
    40    21    22   ar
    41    22    23   ar
    42    23    24    1
    43    23    25   ar
    44    25    26    1
    45    25    19   ar
    46    17    12    1
    47    11     5   ar
    48    47    39   ar
    49    37    32   ar
    50    47    42   ar
    51     3     4    1
    52    41    48    1
    53    30    31    1
@<TRIPOS>MOLECULE
*****
 48 53 0 0 0
SMALL
GASTEIGER

@<TRIPOS>ATOM
      1 C         -65.3606  -40.3582  -22.0428 C.2     1  UNL1        0.2483
      2 O         -66.5635  -40.6519  -21.8010 O.2     1  UNL1       -0.2701
      3 N         -64.5775  -39.6829  -21.0453 N.am    1  UNL1       -0.2945
      4 H         -63.6712  -39.2460  -21.3288 H       1  UNL1        0.1501
      5 C         -63.6522  -41.3458  -25.8656 C.ar    1  UNL1        0.0502
      6 C         -63.1672  -41.9365  -24.6885 C.ar    1  UNL1        0.0148
      7 C         -63.7242  -41.6065  -23.4504 C.ar    1  UNL1        0.0080
      8 C         -64.7856  -40.6900  -23.3658 C.ar    1  UNL1        0.0808
      9 C         -65.2632  -40.0869  -24.5459 C.ar    1  UNL1        0.1457
     10 F         -66.2385  -39.1441  -24.5050 F       1  UNL1       -0.2040
     11 C         -64.7014  -40.4185  -25.7829 C.ar    1  UNL1        0.0443
     12 N         -62.2038  -42.8418  -29.5101 N.pl3   1  UNL1       -0.3041
     13 C         -63.6317  -42.5280  -29.3804 C.3     1  UNL1        0.1122
     14 C         -63.8248  -41.3920  -28.3778 C.3     1  UNL1        0.1122
     15 N         -63.0832  -41.6827  -27.1449 N.pl3   1  UNL1       -0.3040
     16 C         -61.6558  -42.0049  -27.2632 C.3     1  UNL1        0.1122
     17 C         -61.4499  -43.1273  -28.2833 C.3     1  UNL1        0.1122
     18 C         -58.4383  -44.6104  -32.2569 C.3     1  UNL1        0.0320
     19 C         -59.8217  -44.0258  -32.1671 C.ar    1  UNL1       -0.0092
     20 C         -60.3628  -43.7100  -30.9100 C.ar    1  UNL1        0.0112
     21 C         -61.6525  -43.1683  -30.7998 C.ar    1  UNL1        0.0485
     22 C         -62.4015  -42.9393  -31.9615 C.ar    1  UNL1        0.0267
     23 C         -61.8768  -43.2485  -33.2196 C.ar    1  UNL1        0.0691
     24 CL        -62.8625  -42.9362  -34.6430 Cl      1  UNL1       -0.0813
     25 C         -60.5853  -43.7939  -33.3305 C.ar    1  UNL1        0.0643
     26 CL        -59.9303  -44.1828  -34.9235 Cl      1  UNL1       -0.0817
     27 C         -65.0467  -39.5318  -19.6639 C.3     1  UNL1        0.1535
     28 C         -65.3555  -40.8857  -19.0767 C.2     1  UNL1        0.2443
     29 O         -65.9511  -40.9604  -17.9672 O.2     1  UNL1       -0.2730
     30 N         -65.0636  -42.0735  -19.8306 N.am    1  UNL1       -0.2825
     31 H         -64.7975  -41.9601  -20.8352 H       1  UNL1        0.1549
     32 C         -65.2810  -43.4069  -19.3428 C.ar    1  UNL1        0.0535
     33 C         -65.0486  -44.4970  -20.1921 C.ar    1  UNL1        0.0353
     34 C         -65.2394  -45.7963  -19.7162 C.ar    1  UNL1        0.1002
     35 N         -65.6327  -46.0009  -18.4313 N.ar    1  UNL1       -0.2422
     36 C         -65.8476  -44.9640  -17.5788 C.ar    1  UNL1        0.1002
     37 C         -65.6697  -43.6486  -18.0149 C.ar    1  UNL1        0.0353
     38 C         -63.9897  -38.8009  -18.8138 C.3     1  UNL1        0.0569
     39 C         -63.9493  -37.3307  -19.1223 C.ar    1  UNL1       -0.0017
     40 C         -64.9150  -36.3871  -18.7826 C.ar    1  UNL1        0.0681
     41 N         -64.6116  -35.1852  -19.3234 N.ar    1  UNL1       -0.3523
     42 C         -63.4704  -35.3646  -20.0110 C.ar    1  UNL1        0.0563
     43 C         -62.7817  -34.4172  -20.7672 C.ar    1  UNL1        0.0170
     44 C         -61.6162  -34.8319  -21.4372 C.ar    1  UNL1        0.0015
     45 C         -61.1732  -36.1701  -21.3420 C.ar    1  UNL1        0.0001
     46 C         -61.8908  -37.1055  -20.5745 C.ar    1  UNL1        0.0012
     47 C         -63.0378  -36.6626  -19.9157 C.ar    1  UNL1        0.0131
     48 H         -65.1675  -34.3050  -19.2416 H       1  UNL1        0.1660
@<TRIPOS>BOND
     1    18    19    1
     2    19    20   ar
     3    20    21   ar
     4    21    12    1
     5    12    13    1
     6    13    14    1
     7    14    15    1
     8    15     5    1
     9     5     6   ar
    10     6     7   ar
    11     7     8   ar
    12     8     1    1
    13     1     2    2
    14     1     3   am
    15     3    27    1
    16    27    38    1
    17    38    39    1
    18    39    40   ar
    19    40    41   ar
    20    41    42   ar
    21    42    43   ar
    22    43    44   ar
    23    44    45   ar
    24    45    46   ar
    25    46    47   ar
    26    27    28    1
    27    28    29    2
    28    28    30   am
    29    30    32    1
    30    32    33   ar
    31    33    34   ar
    32    34    35   ar
    33    35    36   ar
    34    36    37   ar
    35     8     9   ar
    36     9    10    1
    37     9    11   ar
    38    15    16    1
    39    16    17    1
    40    21    22   ar
    41    22    23   ar
    42    23    24    1
    43    23    25   ar
    44    25    26    1
    45    25    19   ar
    46    17    12    1
    47    11     5   ar
    48    47    39   ar
    49    37    32   ar
    50    47    42   ar
    51     3     4    1
    52    41    48    1
    53    30    31    1
@<TRIPOS>MOLECULE
*****
 48 53 0 0 0
SMALL
GASTEIGER

@<TRIPOS>ATOM
      1 C         -64.5718  -40.5045  -21.7517 C.2     1  UNL1        0.2483
      2 O         -65.6674  -39.9026  -21.5807 O.2     1  UNL1       -0.2701
      3 N         -63.7157  -40.7595  -20.6265 N.am    1  UNL1       -0.2945
      4 H         -62.7263  -41.0468  -20.8028 H       1  UNL1        0.1501
      5 C         -63.3759  -41.7087  -25.7049 C.ar    1  UNL1        0.0502
      6 C         -62.7081  -42.1995  -24.5722 C.ar    1  UNL1        0.0148
      7 C         -63.0995  -41.7995  -23.2921 C.ar    1  UNL1        0.0080
      8 C         -64.1744  -40.9117  -23.1181 C.ar    1  UNL1        0.0808
      9 C         -64.8357  -40.4085  -24.2556 C.ar    1  UNL1        0.1457
     10 F         -65.8326  -39.4950  -24.1389 F       1  UNL1       -0.2040
     11 C         -64.4394  -40.8099  -25.5353 C.ar    1  UNL1        0.0443
     12 N         -61.8577  -42.4702  -29.5432 N.pl3   1  UNL1       -0.3041
     13 C         -61.0547  -42.8329  -28.3695 C.3     1  UNL1        0.1122
     14 C         -61.9728  -43.1739  -27.1973 C.3     1  UNL1        0.1122
     15 N         -62.9781  -42.1181  -27.0270 N.pl3   1  UNL1       -0.3040
     16 C         -63.7824  -41.7422  -28.1962 C.3     1  UNL1        0.1122
     17 C         -62.8714  -41.4205  -29.3833 C.3     1  UNL1        0.1122
     18 C         -62.8670  -43.0458  -34.3911 C.3     1  UNL1        0.0320
     19 C         -61.9186  -43.1926  -33.2325 C.ar    1  UNL1       -0.0092
     20 C         -62.3154  -42.7743  -31.9518 C.ar    1  UNL1        0.0112
     21 C         -61.4473  -42.8964  -30.8561 C.ar    1  UNL1        0.0485
     22 C         -60.1731  -43.4461  -31.0491 C.ar    1  UNL1        0.0267
     23 C         -59.7636  -43.8668  -32.3176 C.ar    1  UNL1        0.0691
     24 CL        -58.1534  -44.5521  -32.4983 Cl      1  UNL1       -0.0813
     25 C         -60.6323  -43.7423  -33.4164 C.ar    1  UNL1        0.0643
     26 CL        -60.1068  -44.2751  -35.0158 Cl      1  UNL1       -0.0817
     27 C         -64.1709  -40.5613  -19.2464 C.3     1  UNL1        0.1535
     28 C         -63.9986  -39.1161  -18.8527 C.2     1  UNL1        0.2443
     29 O         -63.1421  -38.8081  -17.9792 O.2     1  UNL1       -0.2730
     30 N         -64.7342  -38.0953  -19.5464 N.am    1  UNL1       -0.2825
     31 H         -65.2446  -38.3686  -20.4169 H       1  UNL1        0.1549
     32 C         -64.6714  -36.6982  -19.2187 C.ar    1  UNL1        0.0535
     33 C         -65.8364  -35.9224  -19.2858 C.ar    1  UNL1        0.0353
     34 C         -65.7845  -34.5678  -18.9489 C.ar    1  UNL1        0.1002
     35 N         -64.6131  -34.0106  -18.5428 N.ar    1  UNL1       -0.2422
     36 C         -63.4712  -34.7423  -18.4498 C.ar    1  UNL1        0.1002
     37 C         -63.4790  -36.1001  -18.7788 C.ar    1  UNL1        0.0353
     38 C         -65.6432  -40.9912  -19.0986 C.3     1  UNL1        0.0569
     39 C         -65.7613  -42.4024  -18.5955 C.ar    1  UNL1       -0.0017
     40 C         -66.3960  -42.8138  -17.4268 C.ar    1  UNL1        0.0681
     41 N         -66.2040  -44.1375  -17.2260 N.ar    1  UNL1       -0.3523
     42 C         -65.4440  -44.5622  -18.2504 C.ar    1  UNL1        0.0563
     43 C         -64.9568  -45.8509  -18.4635 C.ar    1  UNL1        0.0170
     44 C         -64.1461  -46.0690  -19.5925 C.ar    1  UNL1        0.0015
     45 C         -63.8397  -45.0051  -20.4702 C.ar    1  UNL1        0.0001
     46 C         -64.3424  -43.7138  -20.2278 C.ar    1  UNL1        0.0012
     47 C         -65.1495  -43.5307  -19.1049 C.ar    1  UNL1        0.0131
     48 H         -66.5556  -44.7052  -16.4232 H       1  UNL1        0.1660
@<TRIPOS>BOND
     1    18    19    1
     2    19    20   ar
     3    20    21   ar
     4    21    12    1
     5    12    13    1
     6    13    14    1
     7    14    15    1
     8    15     5    1
     9     5     6   ar
    10     6     7   ar
    11     7     8   ar
    12     8     1    1
    13     1     2    2
    14     1     3   am
    15     3    27    1
    16    27    38    1
    17    38    39    1
    18    39    40   ar
    19    40    41   ar
    20    41    42   ar
    21    42    43   ar
    22    43    44   ar
    23    44    45   ar
    24    45    46   ar
    25    46    47   ar
    26    27    28    1
    27    28    29    2
    28    28    30   am
    29    30    32    1
    30    32    33   ar
    31    33    34   ar
    32    34    35   ar
    33    35    36   ar
    34    36    37   ar
    35     8     9   ar
    36     9    10    1
    37     9    11   ar
    38    15    16    1
    39    16    17    1
    40    21    22   ar
    41    22    23   ar
    42    23    24    1
    43    23    25   ar
    44    25    26    1
    45    25    19   ar
    46    17    12    1
    47    11     5   ar
    48    47    39   ar
    49    37    32   ar
    50    47    42   ar
    51     3     4    1
    52    41    48    1
    53    30    31    1
@<TRIPOS>MOLECULE
*****
 48 53 0 0 0
SMALL
GASTEIGER

@<TRIPOS>ATOM
      1 C         -64.2145  -40.7076  -21.5101 C.2     1  UNL1        0.2483
      2 O         -65.4126  -40.4399  -21.2190 O.2     1  UNL1       -0.2701
      3 N         -63.1999  -40.6274  -20.4960 N.am    1  UNL1       -0.2945
      4 H         -62.1963  -40.6260  -20.7883 H       1  UNL1        0.1501
      5 C         -63.1738  -41.7850  -25.5430 C.ar    1  UNL1        0.0502
      6 C         -62.4141  -42.2480  -24.4575 C.ar    1  UNL1        0.0148
      7 C         -62.7558  -41.8894  -23.1511 C.ar    1  UNL1        0.0080
      8 C         -63.8713  -41.0720  -22.9030 C.ar    1  UNL1        0.0808
      9 C         -64.6256  -40.5962  -23.9934 C.ar    1  UNL1        0.1457
     10 F         -65.6681  -39.7477  -23.8063 F       1  UNL1       -0.2040
     11 C         -64.2789  -40.9560  -25.2996 C.ar    1  UNL1        0.0443
     12 N         -61.6878  -42.5708  -29.3889 N.pl3   1  UNL1       -0.3041
     13 C         -61.1400  -43.3079  -28.2441 C.3     1  UNL1        0.1122
     14 C         -62.2079  -43.4549  -27.1620 C.3     1  UNL1        0.1122
     15 N         -62.8276  -42.1521  -26.8917 N.pl3   1  UNL1       -0.3040
     16 C         -63.3727  -41.4028  -28.0304 C.3     1  UNL1        0.1122
     17 C         -62.3165  -41.2699  -29.1302 C.3     1  UNL1        0.1122
     18 C         -58.4008  -44.5475  -32.5733 C.3     1  UNL1        0.0320
     19 C         -59.7421  -43.9188  -32.3101 C.ar    1  UNL1       -0.0092
     20 C         -60.0890  -43.5428  -31.0021 C.ar    1  UNL1        0.0112
     21 C         -61.3357  -42.9589  -30.7303 C.ar    1  UNL1        0.0485
     22 C         -62.2379  -42.7486  -31.7814 C.ar    1  UNL1        0.0267
     23 C         -61.9072  -43.1176  -33.0884 C.ar    1  UNL1        0.0691
     24 CL        -63.0791  -42.8260  -34.3678 Cl      1  UNL1       -0.0813
     25 C         -60.6589  -43.7051  -33.3609 C.ar    1  UNL1        0.0643
     26 CL        -60.2494  -44.1694  -35.0146 Cl      1  UNL1       -0.0817
     27 C         -63.5344  -40.4784  -19.0758 C.3     1  UNL1        0.1535
     28 C         -64.3825  -39.2480  -18.8756 C.2     1  UNL1        0.2443
     29 O         -65.4544  -39.3330  -18.2159 O.2     1  UNL1       -0.2730
     30 N         -63.9135  -37.9741  -19.3464 N.am    1  UNL1       -0.2825
     31 H         -62.9210  -37.9086  -19.6680 H       1  UNL1        0.1549
     32 C         -64.6644  -36.7541  -19.2416 C.ar    1  UNL1        0.0535
     33 C         -64.1118  -35.6624  -18.5587 C.ar    1  UNL1        0.0353
     34 C         -64.8298  -34.4673  -18.4712 C.ar    1  UNL1        0.1002
     35 N         -66.0504  -34.3605  -19.0596 N.ar    1  UNL1       -0.2422
     36 C         -66.6036  -35.3962  -19.7448 C.ar    1  UNL1        0.1002
     37 C         -65.9197  -36.6096  -19.8551 C.ar    1  UNL1        0.0353
     38 C         -64.2685  -41.7319  -18.5617 C.3     1  UNL1        0.0569
     39 C         -64.0898  -42.8996  -19.4906 C.ar    1  UNL1       -0.0017
     40 C         -65.0225  -43.8997  -19.7514 C.ar    1  UNL1        0.0681
     41 N         -64.4821  -44.8547  -20.5420 N.ar    1  UNL1       -0.3523
     42 C         -63.2139  -44.4727  -20.7722 C.ar    1  UNL1        0.0563
     43 C         -62.2473  -45.1535  -21.5110 C.ar    1  UNL1        0.0170
     44 C         -60.9635  -44.5841  -21.5966 C.ar    1  UNL1        0.0015
     45 C         -60.6766  -43.3638  -20.9450 C.ar    1  UNL1        0.0001
     46 C         -61.6711  -42.7009  -20.2031 C.ar    1  UNL1        0.0012
     47 C         -62.9359  -43.2861  -20.1431 C.ar    1  UNL1        0.0131
     48 H         -64.9510  -45.7238  -20.8816 H       1  UNL1        0.1660
@<TRIPOS>BOND
     1    18    19    1
     2    19    20   ar
     3    20    21   ar
     4    21    12    1
     5    12    13    1
     6    13    14    1
     7    14    15    1
     8    15     5    1
     9     5     6   ar
    10     6     7   ar
    11     7     8   ar
    12     8     1    1
    13     1     2    2
    14     1     3   am
    15     3    27    1
    16    27    38    1
    17    38    39    1
    18    39    40   ar
    19    40    41   ar
    20    41    42   ar
    21    42    43   ar
    22    43    44   ar
    23    44    45   ar
    24    45    46   ar
    25    46    47   ar
    26    27    28    1
    27    28    29    2
    28    28    30   am
    29    30    32    1
    30    32    33   ar
    31    33    34   ar
    32    34    35   ar
    33    35    36   ar
    34    36    37   ar
    35     8     9   ar
    36     9    10    1
    37     9    11   ar
    38    15    16    1
    39    16    17    1
    40    21    22   ar
    41    22    23   ar
    42    23    24    1
    43    23    25   ar
    44    25    26    1
    45    25    19   ar
    46    17    12    1
    47    11     5   ar
    48    47    39   ar
    49    37    32   ar
    50    47    42   ar
    51     3     4    1
    52    41    48    1
    53    30    31    1
@<TRIPOS>MOLECULE
*****
 48 53 0 0 0
SMALL
GASTEIGER

@<TRIPOS>ATOM
      1 C         -65.8589  -40.5671  -22.2933 C.2     1  UNL1        0.2483
      2 O         -67.0671  -40.8830  -22.1131 O.2     1  UNL1       -0.2701
      3 N         -65.1386  -39.8837  -21.2550 N.am    1  UNL1       -0.2945
      4 H         -64.2272  -39.4295  -21.4909 H       1  UNL1        0.1501
      5 C         -64.0226  -41.4671  -26.0783 C.ar    1  UNL1        0.0502
      6 C         -65.2318  -40.7574  -26.0179 C.ar    1  UNL1        0.0148
      7 C         -65.8243  -40.4735  -24.7848 C.ar    1  UNL1        0.0080
      8 C         -65.2131  -40.8816  -23.5874 C.ar    1  UNL1        0.0808
      9 C         -64.0064  -41.6060  -23.6488 C.ar    1  UNL1        0.1457
     10 F         -63.4172  -42.0812  -22.5224 F       1  UNL1       -0.2040
     11 C         -63.4178  -41.8897  -24.8852 C.ar    1  UNL1        0.0443
     12 N         -62.3947  -42.8550  -29.6895 N.pl3   1  UNL1       -0.3041
     13 C         -63.8454  -42.6586  -29.5855 C.3     1  UNL1        0.1122
     14 C         -64.1479  -41.5380  -28.5926 C.3     1  UNL1        0.1122
     15 N         -63.4062  -41.7617  -27.3460 N.pl3   1  UNL1       -0.3040
     16 C         -61.9555  -41.9664  -27.4386 C.3     1  UNL1        0.1122
     17 C         -61.6410  -43.0725  -28.4487 C.3     1  UNL1        0.1122
     18 C         -62.7646  -43.0956  -34.6551 C.3     1  UNL1        0.0320
     19 C         -61.9536  -43.2709  -33.4001 C.ar    1  UNL1       -0.0092
     20 C         -62.5337  -42.9894  -32.1523 C.ar    1  UNL1        0.0112
     21 C         -61.7966  -43.1407  -30.9680 C.ar    1  UNL1        0.0485
     22 C         -60.4685  -43.5813  -31.0387 C.ar    1  UNL1        0.0267
     23 C         -59.8771  -43.8653  -32.2730 C.ar    1  UNL1        0.0691
     24 CL        -58.2071  -44.4181  -32.2993 Cl      1  UNL1       -0.0813
     25 C         -60.6146  -43.7114  -33.4604 C.ar    1  UNL1        0.0643
     26 CL        -59.8598  -44.0712  -35.0156 Cl      1  UNL1       -0.0817
     27 C         -65.6785  -39.7481  -19.8980 C.3     1  UNL1        0.1535
     28 C         -65.7613  -41.1031  -19.2419 C.2     1  UNL1        0.2443
     29 O         -66.4819  -41.2543  -18.2176 O.2     1  UNL1       -0.2730
     30 N         -65.1047  -42.2293  -19.8460 N.am    1  UNL1       -0.2825
     31 H         -64.7256  -42.1115  -20.8131 H       1  UNL1        0.1549
     32 C         -65.0893  -43.5485  -19.2778 C.ar    1  UNL1        0.0535
     33 C         -65.8116  -43.8007  -18.1038 C.ar    1  UNL1        0.0353
     34 C         -65.8159  -45.0867  -17.5584 C.ar    1  UNL1        0.1002
     35 N         -65.1359  -46.0903  -18.1732 N.ar    1  UNL1       -0.2422
     36 C         -64.4420  -45.8801  -19.3231 C.ar    1  UNL1        0.1002
     37 C         -64.4105  -44.6085  -19.9011 C.ar    1  UNL1        0.0353
     38 C         -64.8022  -38.7946  -19.0631 C.3     1  UNL1        0.0569
     39 C         -63.7293  -38.1534  -19.8975 C.ar    1  UNL1       -0.0017
     40 C         -63.0008  -38.7600  -20.9170 C.ar    1  UNL1        0.0681
     41 N         -62.0368  -37.9259  -21.3691 N.ar    1  UNL1       -0.3523
     42 C         -62.1427  -36.8039  -20.6362 C.ar    1  UNL1        0.0563
     43 C         -61.3418  -35.6654  -20.7138 C.ar    1  UNL1        0.0170
     44 C         -61.6102  -34.6108  -19.8219 C.ar    1  UNL1        0.0015
     45 C         -62.6574  -34.7189  -18.8798 C.ar    1  UNL1        0.0001
     46 C         -63.4469  -35.8817  -18.8219 C.ar    1  UNL1        0.0012
     47 C         -63.1616  -36.9067  -19.7241 C.ar    1  UNL1        0.0131
     48 H         -61.3381  -38.1266  -22.1187 H       1  UNL1        0.1660
@<TRIPOS>BOND
     1    18    19    1
     2    19    20   ar
     3    20    21   ar
     4    21    12    1
     5    12    13    1
     6    13    14    1
     7    14    15    1
     8    15     5    1
     9     5     6   ar
    10     6     7   ar
    11     7     8   ar
    12     8     1    1
    13     1     2    2
    14     1     3   am
    15     3    27    1
    16    27    38    1
    17    38    39    1
    18    39    40   ar
    19    40    41   ar
    20    41    42   ar
    21    42    43   ar
    22    43    44   ar
    23    44    45   ar
    24    45    46   ar
    25    46    47   ar
    26    27    28    1
    27    28    29    2
    28    28    30   am
    29    30    32    1
    30    32    33   ar
    31    33    34   ar
    32    34    35   ar
    33    35    36   ar
    34    36    37   ar
    35     8     9   ar
    36     9    10    1
    37     9    11   ar
    38    15    16    1
    39    16    17    1
    40    21    22   ar
    41    22    23   ar
    42    23    24    1
    43    23    25   ar
    44    25    26    1
    45    25    19   ar
    46    17    12    1
    47    11     5   ar
    48    47    39   ar
    49    37    32   ar
    50    47    42   ar
    51     3     4    1
    52    41    48    1
    53    30    31    1
