@<TRIPOS>MOLECULE
*****
 52 57 0 0 0
SMALL
GASTEIGER

@<TRIPOS>ATOM
      1 N          -7.9247  -11.3971   32.2535 N.am    1  UNL1       -0.2945
      2 C          -8.5092  -11.2252   30.9527 C.2     1  UNL1        0.2483
      3 O          -9.2629  -10.2386   30.7284 O.2     1  UNL1       -0.2701
      4 H          -7.5929  -12.3509   32.5166 H       1  UNL1        0.1501
      5 C          -8.2693  -12.2145   29.8769 C.ar    1  UNL1        0.0808
      6 C          -6.9838  -12.3401   29.3231 C.ar    1  UNL1        0.0080
      7 C          -6.7360  -13.2618   28.3029 C.ar    1  UNL1        0.0148
      8 C          -7.7663  -14.0856   27.8242 C.ar    1  UNL1        0.0502
      9 C          -9.0472  -13.9734   28.3845 C.ar    1  UNL1        0.0443
     10 C          -9.3004  -13.0510   29.4047 C.ar    1  UNL1        0.1457
     11 F         -10.5410  -13.0121   29.9536 F       1  UNL1       -0.2040
     12 N          -7.5178  -15.0361   26.7713 N.pl3   1  UNL1       -0.3040
     13 C          -6.1522  -15.2704   26.2873 C.3     1  UNL1        0.1122
     14 C          -6.1634  -15.4782   24.7724 C.3     1  UNL1        0.1122
     15 N          -7.1979  -16.4520   24.4035 N.pl3   1  UNL1       -0.3041
     16 C          -8.5636  -16.2178   24.8880 C.3     1  UNL1        0.1122
     17 C          -8.5523  -16.0102   26.4028 C.3     1  UNL1        0.1122
     18 C          -6.9504  -17.4000   23.3481 C.ar    1  UNL1        0.0479
     19 C          -8.0008  -18.1780   22.8383 C.ar    1  UNL1        0.0145
     20 C          -7.7678  -19.0982   21.8125 C.ar    1  UNL1        0.0051
     21 C          -6.4822  -19.2434   21.2636 C.ar    1  UNL1        0.0715
     22 C          -5.4262  -18.4813   21.7920 C.ar    1  UNL1        0.0051
     23 C          -5.6602  -17.5606   22.8173 C.ar    1  UNL1        0.0145
     24 C          -6.2206  -20.2716   20.1919 C.3     1  UNL1        0.4186
     25 F          -5.1007  -19.9328   19.4522 F       1  UNL1       -0.1659
     26 F          -6.0069  -21.5189   20.7529 F       1  UNL1       -0.1659
     27 F          -7.3140  -20.3382   19.3489 F       1  UNL1       -0.1659
     28 C          -8.0312  -10.3796   33.3057 C.3     1  UNL1        0.1535
     29 C          -7.5286   -9.0452   32.8101 C.2     1  UNL1        0.2443
     30 O          -6.2982   -8.7745   32.8766 O.2     1  UNL1       -0.2730
     31 N          -8.4562   -8.0887   32.2731 N.am    1  UNL1       -0.2825
     32 H          -9.4724   -8.2408   32.4651 H       1  UNL1        0.1549
     33 C          -8.0785   -6.9005   31.5543 C.ar    1  UNL1        0.0535
     34 C          -9.0703   -6.1358   30.9247 C.ar    1  UNL1        0.0353
     35 C          -8.7112   -5.0001   30.1951 C.ar    1  UNL1        0.1002
     36 N          -7.4036   -4.6476   30.0815 N.ar    1  UNL1       -0.2422
     37 C          -6.4169   -5.3781   30.6643 C.ar    1  UNL1        0.1002
     38 C          -6.7328   -6.5187   31.4062 C.ar    1  UNL1        0.0353
     39 C          -9.4764  -10.2960   33.8425 C.3     1  UNL1        0.0569
     40 C         -12.5343  -14.1738   33.2710 C.ar    1  UNL1        0.0228
     41 C         -13.3707  -13.5741   32.2993 C.ar    1  UNL1       -0.0004
     42 C         -13.1672  -12.2389   31.8945 C.ar    1  UNL1       -0.0002
     43 C         -12.1108  -11.4855   32.4278 C.ar    1  UNL1        0.0011
     44 C         -11.2686  -12.1036   33.3505 C.ar    1  UNL1        0.0129
     45 C         -10.1422  -11.6376   34.0025 C.ar    1  UNL1       -0.0017
     46 C          -9.7083  -12.6915   34.7982 C.ar    1  UNL1        0.0681
     47 N         -10.5160  -13.7641   34.6447 N.ar    1  UNL1       -0.3524
     48 C         -11.4681  -13.3995   33.7625 C.ar    1  UNL1        0.0546
     49 H         -10.3986  -14.6873   35.1167 H       1  UNL1        0.1660
     50 C         -12.7255  -15.6133   33.6791 C.3     1  UNL1        0.1701
     51 C         -12.6852  -17.0206   31.8542 C.3     1  UNL1        0.1746
     52 O         -13.5191  -16.2903   32.7255 O.3     1  UNL1       -0.3463
@<TRIPOS>BOND
     1    51    52    1
     2    52    50    1
     3    50    40    1
     4    40    41   ar
     5    41    42   ar
     6    42    43   ar
     7    43    44   ar
     8    44    45   ar
     9    45    39    1
    10    39    28    1
    11    28     1    1
    12     1     2   am
    13     2     3    2
    14     2     5    1
    15     5     6   ar
    16     6     7   ar
    17     7     8   ar
    18     8    12    1
    19    12    13    1
    20    13    14    1
    21    14    15    1
    22    15    18    1
    23    18    19   ar
    24    19    20   ar
    25    20    21   ar
    26    21    24    1
    27    24    25    1
    28    24    26    1
    29    24    27    1
    30    21    22   ar
    31    22    23   ar
    32    15    16    1
    33    16    17    1
    34     8     9   ar
    35     9    10   ar
    36    10    11    1
    37    28    29    1
    38    29    30    2
    39    29    31   am
    40    31    33    1
    41    33    34   ar
    42    34    35   ar
    43    35    36   ar
    44    36    37   ar
    45    37    38   ar
    46    45    46   ar
    47    46    47   ar
    48    47    48   ar
    49    48    40   ar
    50    48    44   ar
    51    10     5   ar
    52    38    33   ar
    53    17    12    1
    54    23    18   ar
    55     1     4    1
    56    31    32    1
    57    47    49    1
@<TRIPOS>MOLECULE
*****
 52 57 0 0 0
SMALL
GASTEIGER

@<TRIPOS>ATOM
      1 N         -10.7235  -11.2224   30.0668 N.am    1  UNL1       -0.2945
      2 C          -9.6424  -12.0954   30.4305 C.2     1  UNL1        0.2483
      3 O          -9.2565  -12.1506   31.6305 O.2     1  UNL1       -0.2701
      4 H         -10.8080  -10.9425   29.0650 H       1  UNL1        0.1501
      5 C          -8.9458  -12.9072   29.4062 C.ar    1  UNL1        0.0808
      6 C          -9.6714  -13.8451   28.6521 C.ar    1  UNL1        0.0080
      7 C          -9.0337  -14.6264   27.6851 C.ar    1  UNL1        0.0148
      8 C          -7.6593  -14.4766   27.4442 C.ar    1  UNL1        0.0502
      9 C          -6.9347  -13.5312   28.1846 C.ar    1  UNL1        0.0443
     10 C          -7.5684  -12.7482   29.1547 C.ar    1  UNL1        0.1457
     11 F          -6.8399  -11.8099   29.8111 F       1  UNL1       -0.2040
     12 N          -6.9959  -15.2805   26.4505 N.pl3   1  UNL1       -0.3040
     13 C          -5.6868  -15.8814   26.7320 C.3     1  UNL1        0.1122
     14 C          -4.8112  -15.8365   25.4793 C.3     1  UNL1        0.1122
     15 N          -5.5605  -16.3375   24.3207 N.pl3   1  UNL1       -0.3041
     16 C          -6.8699  -15.7366   24.0395 C.3     1  UNL1        0.1122
     17 C          -7.7454  -15.7817   25.2921 C.3     1  UNL1        0.1122
     18 C          -4.8958  -17.1383   23.3253 C.ar    1  UNL1        0.0479
     19 C          -5.6417  -17.7912   22.3323 C.ar    1  UNL1        0.0145
     20 C          -5.0026  -18.5679   21.3619 C.ar    1  UNL1        0.0051
     21 C          -3.6026  -18.6903   21.3553 C.ar    1  UNL1        0.0715
     22 C          -2.8588  -18.0560   22.3651 C.ar    1  UNL1        0.0051
     23 C          -3.4986  -17.2786   23.3346 C.ar    1  UNL1        0.0145
     24 C          -2.9172  -19.5688   20.3390 C.3     1  UNL1        0.4186
     25 F          -1.8914  -20.2883   20.9273 F       1  UNL1       -0.1659
     26 F          -3.8134  -20.4673   19.7860 F       1  UNL1       -0.1659
     27 F          -2.3938  -18.7780   19.3335 F       1  UNL1       -0.1659
     28 C         -11.5223  -10.5000   31.0636 C.3     1  UNL1        0.1535
     29 C         -11.8812  -11.4052   32.2172 C.2     1  UNL1        0.2443
     30 O         -12.2129  -10.9052   33.3270 O.2     1  UNL1       -0.2730
     31 N         -11.8348  -12.8307   32.0459 N.am    1  UNL1       -0.2825
     32 H         -11.3218  -13.2009   31.2139 H       1  UNL1        0.1549
     33 C         -12.3811  -13.7826   32.9770 C.ar    1  UNL1        0.0535
     34 C         -11.8190  -13.8900   34.2566 C.ar    1  UNL1        0.0353
     35 C         -12.3187  -14.8346   35.1562 C.ar    1  UNL1        0.1002
     36 N         -13.3343  -15.6582   34.7862 N.ar    1  UNL1       -0.2422
     37 C         -13.8884  -15.5918   33.5471 C.ar    1  UNL1        0.1002
     38 C         -13.4214  -14.6589   32.6184 C.ar    1  UNL1        0.0353
     39 C         -10.7913   -9.2225   31.5299 C.3     1  UNL1        0.0569
     40 C          -5.9626   -8.7236   30.4574 C.ar    1  UNL1        0.0228
     41 C          -5.4826   -8.9840   31.7632 C.ar    1  UNL1       -0.0004
     42 C          -6.3758   -9.2031   32.8320 C.ar    1  UNL1       -0.0002
     43 C          -7.7619   -9.1956   32.6155 C.ar    1  UNL1        0.0011
     44 C          -8.2187   -8.9820   31.3160 C.ar    1  UNL1        0.0129
     45 C          -9.5005   -8.9617   30.7987 C.ar    1  UNL1       -0.0017
     46 C          -9.3510   -8.7098   29.4399 C.ar    1  UNL1        0.0681
     47 N          -8.0429   -8.5882   29.1223 N.ar    1  UNL1       -0.3524
     48 C          -7.3563   -8.7524   30.2709 C.ar    1  UNL1        0.0546
     49 H          -7.6620   -8.4146   28.1665 H       1  UNL1        0.1660
     50 C          -5.0104   -8.5258   29.3045 C.3     1  UNL1        0.1701
     51 C          -4.8616  -10.1907   27.7174 C.3     1  UNL1        0.1746
     52 O          -5.5720   -9.0389   28.1133 O.3     1  UNL1       -0.3463
@<TRIPOS>BOND
     1    51    52    1
     2    52    50    1
     3    50    40    1
     4    40    41   ar
     5    41    42   ar
     6    42    43   ar
     7    43    44   ar
     8    44    45   ar
     9    45    39    1
    10    39    28    1
    11    28     1    1
    12     1     2   am
    13     2     3    2
    14     2     5    1
    15     5     6   ar
    16     6     7   ar
    17     7     8   ar
    18     8    12    1
    19    12    13    1
    20    13    14    1
    21    14    15    1
    22    15    18    1
    23    18    19   ar
    24    19    20   ar
    25    20    21   ar
    26    21    24    1
    27    24    25    1
    28    24    26    1
    29    24    27    1
    30    21    22   ar
    31    22    23   ar
    32    15    16    1
    33    16    17    1
    34     8     9   ar
    35     9    10   ar
    36    10    11    1
    37    28    29    1
    38    29    30    2
    39    29    31   am
    40    31    33    1
    41    33    34   ar
    42    34    35   ar
    43    35    36   ar
    44    36    37   ar
    45    37    38   ar
    46    45    46   ar
    47    46    47   ar
    48    47    48   ar
    49    48    40   ar
    50    48    44   ar
    51    10     5   ar
    52    38    33   ar
    53    17    12    1
    54    23    18   ar
    55     1     4    1
    56    31    32    1
    57    47    49    1
@<TRIPOS>MOLECULE
*****
 52 57 0 0 0
SMALL
GASTEIGER

@<TRIPOS>ATOM
      1 N         -10.0394  -10.7577   30.5567 N.am    1  UNL1       -0.2945
      2 C          -8.8624  -11.5520   30.7735 C.2     1  UNL1        0.2483
      3 O          -8.2346  -11.4595   31.8639 O.2     1  UNL1       -0.2701
      4 H         -10.3436  -10.5958   29.5716 H       1  UNL1        0.1501
      5 C          -8.3510  -12.4541   29.7160 C.ar    1  UNL1        0.0808
      6 C          -9.2212  -13.3753   29.1085 C.ar    1  UNL1        0.0080
      7 C          -8.7591  -14.2404   28.1136 C.ar    1  UNL1        0.0148
      8 C          -7.4197  -14.1934   27.6973 C.ar    1  UNL1        0.0502
      9 C          -6.5517  -13.2653   28.2910 C.ar    1  UNL1        0.0443
     10 C          -7.0094  -12.3985   29.2884 C.ar    1  UNL1        0.1457
     11 F          -6.1487  -11.4816   29.7987 F       1  UNL1       -0.2040
     12 N          -6.9369  -15.0840   26.6739 N.pl3   1  UNL1       -0.3040
     13 C          -5.6461  -15.7653   26.8285 C.3     1  UNL1        0.1122
     14 C          -4.9281  -15.8363   25.4804 C.3     1  UNL1        0.1122
     15 N          -5.8443  -16.3302   24.4453 N.pl3   1  UNL1       -0.3041
     16 C          -7.1353  -15.6490   24.2910 C.3     1  UNL1        0.1122
     17 C          -7.8532  -15.5782   25.6391 C.3     1  UNL1        0.1122
     18 C          -5.3602  -17.2180   23.4198 C.ar    1  UNL1        0.0479
     19 C          -4.0154  -17.6178   23.4105 C.ar    1  UNL1        0.0145
     20 C          -3.5398  -18.4810   22.4194 C.ar    1  UNL1        0.0051
     21 C          -4.4061  -18.9762   21.4297 C.ar    1  UNL1        0.0715
     22 C          -5.7470  -18.5553   21.4259 C.ar    1  UNL1        0.0051
     23 C          -6.2220  -17.6928   22.4179 C.ar    1  UNL1        0.0145
     24 C          -3.8818  -19.8670   20.3316 C.3     1  UNL1        0.4186
     25 F          -4.9100  -20.5990   19.7632 F       1  UNL1       -0.1659
     26 F          -3.2846  -19.1146   19.3350 F       1  UNL1       -0.1659
     27 F          -2.9474  -20.7380   20.8597 F       1  UNL1       -0.1659
     28 C         -10.6516   -9.9504   31.6184 C.3     1  UNL1        0.1535
     29 C         -10.2700   -8.4973   31.4706 C.2     1  UNL1        0.2443
     30 O         -10.8748   -7.6185   32.1440 O.2     1  UNL1       -0.2730
     31 N          -9.2256   -8.1238   30.5577 N.am    1  UNL1       -0.2825
     32 H          -8.9302   -8.8303   29.8463 H       1  UNL1        0.1549
     33 C          -8.6117   -6.8230   30.5083 C.ar    1  UNL1        0.0535
     34 C          -9.3494   -5.7349   30.0216 C.ar    1  UNL1        0.0353
     35 C          -8.7522   -4.4751   29.9366 C.ar    1  UNL1        0.1002
     36 N          -7.4556   -4.3085   30.3079 N.ar    1  UNL1       -0.2422
     37 C          -6.7080   -5.3466   30.7663 C.ar    1  UNL1        0.1002
     38 C          -7.2676   -6.6222   30.8710 C.ar    1  UNL1        0.0353
     39 C         -12.1821  -10.1518   31.6461 C.3     1  UNL1        0.0569
     40 C         -12.4998  -14.6218   33.7987 C.ar    1  UNL1        0.0228
     41 C         -11.4225  -14.4410   34.6987 C.ar    1  UNL1       -0.0004
     42 C         -10.6510  -13.2610   34.6760 C.ar    1  UNL1       -0.0002
     43 C         -10.9552  -12.2277   33.7772 C.ar    1  UNL1        0.0011
     44 C         -12.0464  -12.4016   32.9275 C.ar    1  UNL1        0.0129
     45 C         -12.6023  -11.5583   31.9836 C.ar    1  UNL1       -0.0017
     46 C         -13.6778  -12.2562   31.4465 C.ar    1  UNL1        0.0681
     47 N         -13.7940  -13.4693   32.0308 N.ar    1  UNL1       -0.3524
     48 C         -12.7947  -13.5543   32.9318 C.ar    1  UNL1        0.0546
     49 H         -14.5291  -14.1791   31.8194 H       1  UNL1        0.1660
     50 C         -13.3506  -15.8664   33.8449 C.3     1  UNL1        0.1701
     51 C         -12.6107  -16.9180   31.9319 C.3     1  UNL1        0.1746
     52 O         -13.7047  -16.2651   32.5360 O.3     1  UNL1       -0.3463
@<TRIPOS>BOND
     1    51    52    1
     2    52    50    1
     3    50    40    1
     4    40    41   ar
     5    41    42   ar
     6    42    43   ar
     7    43    44   ar
     8    44    45   ar
     9    45    39    1
    10    39    28    1
    11    28     1    1
    12     1     2   am
    13     2     3    2
    14     2     5    1
    15     5     6   ar
    16     6     7   ar
    17     7     8   ar
    18     8    12    1
    19    12    13    1
    20    13    14    1
    21    14    15    1
    22    15    18    1
    23    18    19   ar
    24    19    20   ar
    25    20    21   ar
    26    21    24    1
    27    24    25    1
    28    24    26    1
    29    24    27    1
    30    21    22   ar
    31    22    23   ar
    32    15    16    1
    33    16    17    1
    34     8     9   ar
    35     9    10   ar
    36    10    11    1
    37    28    29    1
    38    29    30    2
    39    29    31   am
    40    31    33    1
    41    33    34   ar
    42    34    35   ar
    43    35    36   ar
    44    36    37   ar
    45    37    38   ar
    46    45    46   ar
    47    46    47   ar
    48    47    48   ar
    49    48    40   ar
    50    48    44   ar
    51    10     5   ar
    52    38    33   ar
    53    17    12    1
    54    23    18   ar
    55     1     4    1
    56    31    32    1
    57    47    49    1
@<TRIPOS>MOLECULE
*****
 52 57 0 0 0
SMALL
GASTEIGER

@<TRIPOS>ATOM
      1 N          -8.4856  -11.6159   32.0498 N.am    1  UNL1       -0.2945
      2 C          -8.5934  -11.2848   30.6563 C.2     1  UNL1        0.2483
      3 O          -9.0053  -10.1429   30.3123 O.2     1  UNL1       -0.2701
      4 H          -8.4693  -12.6262   32.3109 H       1  UNL1        0.1501
      5 C          -8.2627  -12.2818   29.6122 C.ar    1  UNL1        0.0808
      6 C          -6.9551  -12.3443   29.1011 C.ar    1  UNL1        0.0080
      7 C          -6.6222  -13.2723   28.1112 C.ar    1  UNL1        0.0148
      8 C          -7.5876  -14.1651   27.6210 C.ar    1  UNL1        0.0502
      9 C          -8.8900  -14.1155   28.1391 C.ar    1  UNL1        0.0443
     10 C          -9.2283  -13.1872   29.1288 C.ar    1  UNL1        0.1457
     11 F         -10.4860  -13.2087   29.6384 F       1  UNL1       -0.2040
     12 N          -7.2512  -15.1224   26.5991 N.pl3   1  UNL1       -0.3040
     13 C          -5.8542  -15.5129   26.3760 C.3     1  UNL1        0.1122
     14 C          -5.5951  -15.6945   24.8800 C.3     1  UNL1        0.1122
     15 N          -6.6442  -16.5302   24.2832 N.pl3   1  UNL1       -0.3041
     16 C          -8.0414  -16.1397   24.5068 C.3     1  UNL1        0.1122
     17 C          -8.3003  -15.9583   26.0028 C.3     1  UNL1        0.1122
     18 C          -6.3080  -17.4848   23.2588 C.ar    1  UNL1        0.0479
     19 C          -4.9656  -17.8057   23.0070 C.ar    1  UNL1        0.0145
     20 C          -4.6327  -18.7331   22.0157 C.ar    1  UNL1        0.0051
     21 C          -5.6386  -19.3719   21.2705 C.ar    1  UNL1        0.0715
     22 C          -6.9814  -19.0311   21.5068 C.ar    1  UNL1        0.0051
     23 C          -7.3135  -18.1043   22.4990 C.ar    1  UNL1        0.0145
     24 C          -5.2774  -20.3345   20.1672 C.3     1  UNL1        0.4186
     25 F          -4.3166  -19.7862   19.3351 F       1  UNL1       -0.1659
     26 F          -4.7737  -21.5123   20.6917 F       1  UNL1       -0.1659
     27 F          -6.4075  -20.6193   19.4241 F       1  UNL1       -0.1659
     28 C          -8.6793  -10.6228   33.1128 C.3     1  UNL1        0.1535
     29 C          -7.8674   -9.3805   32.8364 C.2     1  UNL1        0.2443
     30 O          -8.4312   -8.2520   32.8274 O.2     1  UNL1       -0.2730
     31 N          -6.4589   -9.4924   32.5774 N.am    1  UNL1       -0.2825
     32 H          -6.0842  -10.4401   32.3448 H       1  UNL1        0.1549
     33 C          -5.5446   -8.3814   32.5440 C.ar    1  UNL1        0.0535
     34 C          -5.3666   -7.6759   31.3459 C.ar    1  UNL1        0.0353
     35 C          -4.4558   -6.6181   31.2931 C.ar    1  UNL1        0.1002
     36 N          -3.7324   -6.2854   32.3944 N.ar    1  UNL1       -0.2422
     37 C          -3.8683   -6.9613   33.5655 C.ar    1  UNL1        0.1002
     38 C          -4.7707   -8.0229   33.6626 C.ar    1  UNL1        0.0353
     39 C         -10.1791  -10.3094   33.3030 C.3     1  UNL1        0.0569
     40 C         -12.5947  -14.6500   33.5018 C.ar    1  UNL1        0.0228
     41 C         -11.9522  -15.1356   34.6657 C.ar    1  UNL1       -0.0004
     42 C         -10.9266  -14.3949   35.2884 C.ar    1  UNL1       -0.0002
     43 C         -10.5416  -13.1448   34.7812 C.ar    1  UNL1        0.0011
     44 C         -11.2138  -12.6595   33.6608 C.ar    1  UNL1        0.0129
     45 C         -11.0864  -11.4661   32.9748 C.ar    1  UNL1       -0.0017
     46 C         -12.0191  -11.5252   31.9458 C.ar    1  UNL1        0.0681
     47 N         -12.7009  -12.6912   31.9917 N.ar    1  UNL1       -0.3524
     48 C         -12.2041  -13.3809   33.0381 C.ar    1  UNL1        0.0546
     49 H         -13.4668  -12.9747   31.3421 H       1  UNL1        0.1660
     50 C         -13.7175  -15.4217   32.8546 C.3     1  UNL1        0.1701
     51 C         -12.5531  -17.0018   31.6461 C.3     1  UNL1        0.1746
     52 O         -13.3819  -16.7918   32.7673 O.3     1  UNL1       -0.3463
@<TRIPOS>BOND
     1    51    52    1
     2    52    50    1
     3    50    40    1
     4    40    41   ar
     5    41    42   ar
     6    42    43   ar
     7    43    44   ar
     8    44    45   ar
     9    45    39    1
    10    39    28    1
    11    28     1    1
    12     1     2   am
    13     2     3    2
    14     2     5    1
    15     5     6   ar
    16     6     7   ar
    17     7     8   ar
    18     8    12    1
    19    12    13    1
    20    13    14    1
    21    14    15    1
    22    15    18    1
    23    18    19   ar
    24    19    20   ar
    25    20    21   ar
    26    21    24    1
    27    24    25    1
    28    24    26    1
    29    24    27    1
    30    21    22   ar
    31    22    23   ar
    32    15    16    1
    33    16    17    1
    34     8     9   ar
    35     9    10   ar
    36    10    11    1
    37    28    29    1
    38    29    30    2
    39    29    31   am
    40    31    33    1
    41    33    34   ar
    42    34    35   ar
    43    35    36   ar
    44    36    37   ar
    45    37    38   ar
    46    45    46   ar
    47    46    47   ar
    48    47    48   ar
    49    48    40   ar
    50    48    44   ar
    51    10     5   ar
    52    38    33   ar
    53    17    12    1
    54    23    18   ar
    55     1     4    1
    56    31    32    1
    57    47    49    1
