@<TRIPOS>MOLECULE
*****
 46 51 0 0 0
SMALL
GASTEIGER

@<TRIPOS>ATOM
      1 C         -64.0319  -51.9549  -24.0279 C.ar    1  UNL1        0.0702
      2 C         -63.9573  -50.6450  -24.5138 C.ar    1  UNL1        0.0191
      3 C         -62.9158  -49.8043  -24.1185 C.ar    1  UNL1        0.0356
      4 C         -61.9466  -50.2734  -23.2126 C.ar    1  UNL1        0.1319
      5 N         -62.0590  -51.5451  -22.7347 N.ar    1  UNL1       -0.2279
      6 C         -63.0620  -52.3823  -23.1085 C.ar    1  UNL1        0.1149
      7 N         -60.8443  -49.4374  -22.7849 N.pl3   1  UNL1       -0.2908
      8 C         -60.8294  -48.8435  -21.4365 C.3     1  UNL1        0.0925
      9 C         -59.7385  -47.7722  -21.2956 C.3     1  UNL1        0.0277
     10 C         -59.7469  -46.8326  -22.5174 C.3     1  UNL1        0.0740
     11 C         -59.5737  -47.6094  -23.8639 C.3     1  UNL1        0.1338
     12 O         -60.5222  -47.1596  -24.7979 O.3     1  UNL1       -0.3826
     13 C         -59.7329  -49.1309  -23.6992 C.3     1  UNL1        0.1214
     14 H         -60.1943  -46.2907  -25.1475 H       1  UNL1        0.2104
     15 C         -58.6686  -45.7427  -22.3490 C.3     1  UNL1        0.2078
     16 O         -58.8947  -44.6484  -23.2389 O.3     1  UNL1       -0.4754
     17 C         -59.8667  -43.6479  -23.0737 C.ar    1  UNL1        0.1388
     18 C         -60.7469  -43.2631  -24.1028 C.ar    1  UNL1        0.0369
     19 C         -61.6907  -42.2584  -23.8802 C.ar    1  UNL1        0.0033
     20 C         -61.7710  -41.6304  -22.6356 C.ar    1  UNL1        0.0066
     21 C         -60.9051  -42.0041  -21.5946 C.ar    1  UNL1        0.0785
     22 C         -59.9569  -43.0176  -21.8261 C.ar    1  UNL1        0.0433
     23 C         -60.9921  -41.3384  -20.2760 C.2     1  UNL1        0.3381
     24 O         -61.4004  -40.1488  -20.1865 O.2     1  UNL1       -0.2451
     25 O         -60.6232  -42.0209  -19.1195 O.3     1  UNL1       -0.4771
     26 H         -60.6789  -41.5746  -18.2118 H       1  UNL1        0.2954
     27 C         -65.7169  -53.8008  -23.5822 C.2     1  UNL1        0.2839
     28 O         -65.1378  -54.1609  -22.5222 O.2     1  UNL1       -0.2665
     29 N         -65.1235  -52.8017  -24.4273 N.am    1  UNL1       -0.2766
     30 H         -65.4472  -52.7434  -25.4194 H       1  UNL1        0.1553
     31 C         -68.5326  -53.5846  -22.0662 C.3     1  UNL1        0.0345
     32 C         -68.2196  -54.3427  -23.3211 C.ar    1  UNL1        0.0202
     33 C         -66.9882  -54.4352  -23.9795 C.ar    1  UNL1        0.1946
     34 O         -67.1064  -55.1936  -25.0549 O.2     1  UNL1       -0.4492
     35 C         -68.3509  -55.5982  -25.1276 C.ar    1  UNL1        0.1452
     36 C         -68.9174  -56.4141  -26.1007 C.ar    1  UNL1        0.0375
     37 C         -70.2833  -56.7258  -25.9874 C.ar    1  UNL1        0.0031
     38 C         -71.0589  -56.2205  -24.9090 C.ar    1  UNL1        0.0002
     39 C         -70.4429  -55.3935  -23.9391 C.ar    1  UNL1        0.0028
     40 C         -69.0850  -55.1047  -24.0826 C.ar    1  UNL1        0.0337
     41 C         -72.5012  -56.5566  -24.7998 C.ar    1  UNL1        0.0000
     42 C         -73.2404  -56.9183  -25.9421 C.ar    1  UNL1        0.0000
     43 C         -74.5987  -57.2333  -25.8364 C.ar    1  UNL1        0.0000
     44 C         -75.2332  -57.1918  -24.5931 C.ar    1  UNL1        0.0000
     45 C         -74.5109  -56.8347  -23.4523 C.ar    1  UNL1        0.0000
     46 C         -73.1527  -56.5180  -23.5522 C.ar    1  UNL1        0.0000
@<TRIPOS>BOND
     1    31    32    1
     2    32    33   ar
     3    33    27    1
     4    27    28    2
     5    27    29   am
     6    29     1    1
     7     1     2   ar
     8     2     3   ar
     9     3     4   ar
    10     4     7    1
    11     7     8    1
    12     8     9    1
    13     9    10    1
    14    10    15    1
    15    15    16    1
    16    16    17    1
    17    17    18   ar
    18    18    19   ar
    19    19    20   ar
    20    20    21   ar
    21    21    23    1
    22    23    24    2
    23    23    25    1
    24    21    22   ar
    25    10    11    1
    26    11    12    1
    27    11    13    1
    28     4     5   ar
    29     5     6   ar
    30    33    34   ar
    31    34    35   ar
    32    35    36   ar
    33    36    37   ar
    34    37    38   ar
    35    38    41    1
    36    41    42   ar
    37    42    43   ar
    38    43    44   ar
    39    44    45   ar
    40    45    46   ar
    41    38    39   ar
    42    39    40   ar
    43    40    32   ar
    44     6     1   ar
    45    40    35   ar
    46    13     7    1
    47    46    41   ar
    48    22    17   ar
    49    29    30    1
    50    25    26    1
    51    12    14    1
@<TRIPOS>MOLECULE
*****
 46 51 0 0 0
SMALL
GASTEIGER

@<TRIPOS>ATOM
      1 C         -72.6392  -56.1237  -22.3960 C.ar    1  UNL1        0.0702
      2 C         -71.5629  -55.4778  -21.7782 C.ar    1  UNL1        0.0191
      3 C         -71.2749  -55.7159  -20.4336 C.ar    1  UNL1        0.0356
      4 C         -72.0837  -56.5974  -19.6927 C.ar    1  UNL1        0.1319
      5 N         -73.1417  -57.1923  -20.3131 N.ar    1  UNL1       -0.2279
      6 C         -73.4386  -56.9784  -21.6218 C.ar    1  UNL1        0.1149
      7 N         -71.8135  -56.8802  -18.2984 N.pl3   1  UNL1       -0.2908
      8 C         -72.8988  -56.8574  -17.3020 C.3     1  UNL1        0.0925
      9 C         -72.3570  -56.8908  -15.8657 C.3     1  UNL1        0.0277
     10 C         -71.1883  -55.8982  -15.7089 C.3     1  UNL1        0.0740
     11 C         -70.0357  -56.1733  -16.7299 C.3     1  UNL1        0.1338
     12 O         -69.6341  -54.9679  -17.3301 O.3     1  UNL1       -0.3826
     13 C         -70.4440  -57.1592  -17.8385 C.3     1  UNL1        0.1214
     14 H         -69.0647  -54.4924  -16.6710 H       1  UNL1        0.2104
     15 C         -70.6742  -55.9179  -14.2549 C.3     1  UNL1        0.2078
     16 O         -71.0643  -54.7374  -13.5514 O.3     1  UNL1       -0.4754
     17 C         -72.3038  -54.0873  -13.6698 C.ar    1  UNL1        0.1388
     18 C         -73.3925  -54.3616  -12.8205 C.ar    1  UNL1        0.0369
     19 C         -74.6024  -53.6852  -12.9892 C.ar    1  UNL1        0.0033
     20 C         -74.7408  -52.7303  -13.9985 C.ar    1  UNL1        0.0066
     21 C         -73.6644  -52.4388  -14.8526 C.ar    1  UNL1        0.0785
     22 C         -72.4482  -53.1240  -14.6763 C.ar    1  UNL1        0.0433
     23 C         -73.8124  -51.4259  -15.9211 C.2     1  UNL1        0.3381
     24 O         -72.8488  -51.1638  -16.6909 O.2     1  UNL1       -0.2451
     25 O         -75.0196  -50.7516  -16.0866 O.3     1  UNL1       -0.4771
     26 H         -75.1317  -50.0564  -16.8149 H       1  UNL1        0.2954
     27 C         -71.9475  -55.8006  -24.8172 C.2     1  UNL1        0.2839
     28 O         -70.7224  -55.7444  -24.5264 O.2     1  UNL1       -0.2665
     29 N         -72.9366  -55.8510  -23.7763 N.am    1  UNL1       -0.2766
     30 H         -73.9191  -55.5911  -24.0206 H       1  UNL1        0.1553
     31 C         -71.6157  -53.3704  -26.8806 C.3     1  UNL1        0.0345
     32 C         -72.2278  -54.7152  -27.1343 C.ar    1  UNL1        0.0202
     33 C         -72.3715  -55.7736  -26.2300 C.ar    1  UNL1        0.1946
     34 O         -72.9584  -56.7982  -26.8228 O.2     1  UNL1       -0.4492
     35 C         -73.2034  -56.4587  -28.0648 C.ar    1  UNL1        0.1452
     36 C         -73.8091  -57.2337  -29.0476 C.ar    1  UNL1        0.0375
     37 C         -73.9739  -56.6699  -30.3245 C.ar    1  UNL1        0.0031
     38 C         -73.5334  -55.3469  -30.5992 C.ar    1  UNL1        0.0002
     39 C         -72.9220  -54.5914  -29.5699 C.ar    1  UNL1        0.0028
     40 C         -72.7748  -55.1826  -28.3141 C.ar    1  UNL1        0.0337
     41 C         -73.7127  -54.7619  -31.9523 C.ar    1  UNL1        0.0000
     42 C         -73.3218  -55.4784  -33.0994 C.ar    1  UNL1        0.0000
     43 C         -73.4909  -54.9245  -34.3722 C.ar    1  UNL1        0.0000
     44 C         -74.0513  -53.6533  -34.5148 C.ar    1  UNL1        0.0000
     45 C         -74.4434  -52.9326  -33.3846 C.ar    1  UNL1        0.0000
     46 C         -74.2759  -53.4810  -32.1094 C.ar    1  UNL1        0.0000
@<TRIPOS>BOND
     1    31    32    1
     2    32    33   ar
     3    33    27    1
     4    27    28    2
     5    27    29   am
     6    29     1    1
     7     1     2   ar
     8     2     3   ar
     9     3     4   ar
    10     4     7    1
    11     7     8    1
    12     8     9    1
    13     9    10    1
    14    10    15    1
    15    15    16    1
    16    16    17    1
    17    17    18   ar
    18    18    19   ar
    19    19    20   ar
    20    20    21   ar
    21    21    23    1
    22    23    24    2
    23    23    25    1
    24    21    22   ar
    25    10    11    1
    26    11    12    1
    27    11    13    1
    28     4     5   ar
    29     5     6   ar
    30    33    34   ar
    31    34    35   ar
    32    35    36   ar
    33    36    37   ar
    34    37    38   ar
    35    38    41    1
    36    41    42   ar
    37    42    43   ar
    38    43    44   ar
    39    44    45   ar
    40    45    46   ar
    41    38    39   ar
    42    39    40   ar
    43    40    32   ar
    44     6     1   ar
    45    40    35   ar
    46    13     7    1
    47    46    41   ar
    48    22    17   ar
    49    29    30    1
    50    25    26    1
    51    12    14    1
@<TRIPOS>MOLECULE
*****
 46 51 0 0 0
SMALL
GASTEIGER

@<TRIPOS>ATOM
      1 C         -72.6702  -56.1519  -21.8626 C.ar    1  UNL1        0.0702
      2 C         -73.5146  -55.7012  -20.8421 C.ar    1  UNL1        0.0191
      3 C         -73.2200  -55.9823  -19.5072 C.ar    1  UNL1        0.0356
      4 C         -72.0764  -56.7381  -19.1896 C.ar    1  UNL1        0.1319
      5 N         -71.2860  -57.1869  -20.2056 N.ar    1  UNL1       -0.2279
      6 C         -71.5511  -56.9223  -21.5118 C.ar    1  UNL1        0.1149
      7 N         -71.7289  -57.0431  -17.8173 N.pl3   1  UNL1       -0.2908
      8 C         -72.7738  -57.1622  -16.7853 C.3     1  UNL1        0.0925
      9 C         -72.1788  -57.1941  -15.3702 C.3     1  UNL1        0.0277
     10 C         -71.1061  -56.0984  -15.2134 C.3     1  UNL1        0.0740
     11 C         -69.9709  -56.2227  -16.2821 C.3     1  UNL1        0.1338
     12 O         -69.7096  -54.9631  -16.8474 O.3     1  UNL1       -0.3826
     13 C         -70.3229  -57.2034  -17.4145 C.3     1  UNL1        0.1214
     14 H         -69.1647  -54.4583  -16.1894 H       1  UNL1        0.2104
     15 C         -70.5392  -56.1201  -13.7792 C.3     1  UNL1        0.2078
     16 O         -70.2873  -54.7975  -13.3016 O.3     1  UNL1       -0.4754
     17 C         -71.0152  -54.1387  -12.2971 C.ar    1  UNL1        0.1388
     18 C         -70.3981  -53.4301  -11.2488 C.ar    1  UNL1        0.0369
     19 C         -71.1750  -52.7978  -10.2760 C.ar    1  UNL1        0.0033
     20 C         -72.5686  -52.8605  -10.3370 C.ar    1  UNL1        0.0066
     21 C         -73.2030  -53.5580  -11.3781 C.ar    1  UNL1        0.0785
     22 C         -72.4137  -54.1924  -12.3551 C.ar    1  UNL1        0.0433
     23 C         -74.6799  -53.6227  -11.4419 C.2     1  UNL1        0.3381
     24 O         -75.3442  -52.6428  -11.8759 O.2     1  UNL1       -0.2451
     25 O         -75.3510  -54.7686  -11.0226 O.3     1  UNL1       -0.4771
     26 H         -76.3618  -54.8235  -11.0620 H       1  UNL1        0.2954
     27 C         -72.0245  -55.7022  -24.2763 C.2     1  UNL1        0.2839
     28 O         -70.8088  -55.5372  -23.9873 O.2     1  UNL1       -0.2665
     29 N         -72.9991  -55.8732  -23.2345 N.am    1  UNL1       -0.2766
     30 H         -74.0031  -55.7018  -23.4694 H       1  UNL1        0.1553
     31 C         -71.3616  -53.4478  -26.4561 C.3     1  UNL1        0.0345
     32 C         -72.1685  -54.6976  -26.6418 C.ar    1  UNL1        0.0202
     33 C         -72.4563  -55.6792  -25.6868 C.ar    1  UNL1        0.1946
     34 O         -73.1950  -56.6324  -26.2267 O.2     1  UNL1       -0.4492
     35 C         -73.4016  -56.3193  -27.4825 C.ar    1  UNL1        0.1452
     36 C         -74.1265  -57.0415  -28.4240 C.ar    1  UNL1        0.0375
     37 C         -74.2211  -56.5203  -29.7259 C.ar    1  UNL1        0.0031
     38 C         -73.5933  -55.2915  -30.0661 C.ar    1  UNL1        0.0002
     39 C         -72.8651  -54.5873  -29.0773 C.ar    1  UNL1        0.0028
     40 C         -72.7921  -55.1339  -27.7951 C.ar    1  UNL1        0.0337
     41 C         -73.7000  -54.7509  -31.4451 C.ar    1  UNL1        0.0000
     42 C         -73.2627  -55.5097  -32.5473 C.ar    1  UNL1        0.0000
     43 C         -73.3635  -54.9975  -33.8446 C.ar    1  UNL1        0.0000
     44 C         -73.9012  -53.7262  -34.0565 C.ar    1  UNL1        0.0000
     45 C         -74.3389  -52.9636  -32.9714 C.ar    1  UNL1        0.0000
     46 C         -74.2397  -53.4703  -31.6720 C.ar    1  UNL1        0.0000
@<TRIPOS>BOND
     1    31    32    1
     2    32    33   ar
     3    33    27    1
     4    27    28    2
     5    27    29   am
     6    29     1    1
     7     1     2   ar
     8     2     3   ar
     9     3     4   ar
    10     4     7    1
    11     7     8    1
    12     8     9    1
    13     9    10    1
    14    10    15    1
    15    15    16    1
    16    16    17    1
    17    17    18   ar
    18    18    19   ar
    19    19    20   ar
    20    20    21   ar
    21    21    23    1
    22    23    24    2
    23    23    25    1
    24    21    22   ar
    25    10    11    1
    26    11    12    1
    27    11    13    1
    28     4     5   ar
    29     5     6   ar
    30    33    34   ar
    31    34    35   ar
    32    35    36   ar
    33    36    37   ar
    34    37    38   ar
    35    38    41    1
    36    41    42   ar
    37    42    43   ar
    38    43    44   ar
    39    44    45   ar
    40    45    46   ar
    41    38    39   ar
    42    39    40   ar
    43    40    32   ar
    44     6     1   ar
    45    40    35   ar
    46    13     7    1
    47    46    41   ar
    48    22    17   ar
    49    29    30    1
    50    25    26    1
    51    12    14    1
@<TRIPOS>MOLECULE
*****
 46 51 0 0 0
SMALL
GASTEIGER

@<TRIPOS>ATOM
      1 C         -64.3251  -52.1590  -24.6517 C.ar    1  UNL1        0.0702
      2 C         -63.6304  -52.5236  -23.4933 C.ar    1  UNL1        0.0191
      3 C         -64.1478  -53.4971  -22.6375 C.ar    1  UNL1        0.0356
      4 C         -65.3836  -54.1011  -22.9345 C.ar    1  UNL1        0.1319
      5 N         -66.0514  -53.7074  -24.0557 N.ar    1  UNL1       -0.2279
      6 C         -65.5652  -52.7646  -24.9051 C.ar    1  UNL1        0.1149
      7 N         -65.9507  -55.1225  -22.0789 N.pl3   1  UNL1       -0.2908
      8 C         -66.6133  -56.3052  -22.6565 C.3     1  UNL1        0.0925
      9 C         -67.3911  -57.0991  -21.5972 C.3     1  UNL1        0.0277
     10 C         -68.2186  -56.1465  -20.7119 C.3     1  UNL1        0.0740
     11 C         -67.3333  -55.0531  -20.0285 C.3     1  UNL1        0.1338
     12 O         -67.9373  -53.7927  -20.1739 O.3     1  UNL1       -0.3826
     13 C         -65.9121  -54.9847  -20.6145 C.3     1  UNL1        0.1214
     14 H         -68.6733  -53.7466  -19.5099 H       1  UNL1        0.2104
     15 C         -69.0195  -56.9580  -19.6732 C.3     1  UNL1        0.2078
     16 O         -69.5161  -56.1176  -18.6303 O.3     1  UNL1       -0.4754
     17 C         -69.0896  -56.1368  -17.2921 C.ar    1  UNL1        0.1388
     18 C         -69.9060  -56.5893  -16.2383 C.ar    1  UNL1        0.0369
     19 C         -69.4278  -56.5811  -14.9264 C.ar    1  UNL1        0.0033
     20 C         -68.1364  -56.1277  -14.6502 C.ar    1  UNL1        0.0066
     21 C         -67.3047  -55.6773  -15.6887 C.ar    1  UNL1        0.0785
     22 C         -67.7932  -55.6888  -17.0081 C.ar    1  UNL1        0.0433
     23 C         -65.9360  -55.1980  -15.3944 C.2     1  UNL1        0.3381
     24 O         -65.7581  -54.1527  -14.7121 O.2     1  UNL1       -0.2451
     25 O         -64.8299  -55.8982  -15.8692 O.3     1  UNL1       -0.4771
     26 H         -63.8887  -55.5789  -15.6735 H       1  UNL1        0.2954
     27 C         -63.9835  -49.7298  -25.3052 C.2     1  UNL1        0.2839
     28 O         -64.8540  -49.3216  -24.4902 O.2     1  UNL1       -0.2665
     29 N         -63.7898  -51.1384  -25.5118 N.am    1  UNL1       -0.2766
     30 H         -63.3027  -51.4435  -26.3848 H       1  UNL1        0.1553
     31 C         -64.0894  -49.2477  -28.4722 C.3     1  UNL1        0.0345
     32 C         -63.2316  -48.5451  -27.4632 C.ar    1  UNL1        0.0202
     33 C         -63.1878  -48.7594  -26.0810 C.ar    1  UNL1        0.1946
     34 O         -62.3074  -47.9460  -25.5251 O.2     1  UNL1       -0.4492
     35 C         -61.7774  -47.2157  -26.4757 C.ar    1  UNL1        0.1452
     36 C         -60.8076  -46.2285  -26.3400 C.ar    1  UNL1        0.0375
     37 C         -60.3783  -45.5612  -27.5001 C.ar    1  UNL1        0.0031
     38 C         -60.9213  -45.8884  -28.7721 C.ar    1  UNL1        0.0002
     39 C         -61.9066  -46.9005  -28.8663 C.ar    1  UNL1        0.0028
     40 C         -62.3092  -47.5425  -27.6942 C.ar    1  UNL1        0.0337
     41 C         -60.4599  -45.1763  -29.9908 C.ar    1  UNL1        0.0000
     42 C         -59.1306  -45.3063  -30.4359 C.ar    1  UNL1        0.0000
     43 C         -58.6988  -44.6337  -31.5832 C.ar    1  UNL1        0.0000
     44 C         -59.5861  -43.8265  -32.2983 C.ar    1  UNL1        0.0000
     45 C         -60.9075  -43.6895  -31.8673 C.ar    1  UNL1        0.0000
     46 C         -61.3446  -44.3590  -30.7202 C.ar    1  UNL1        0.0000
@<TRIPOS>BOND
     1    31    32    1
     2    32    33   ar
     3    33    27    1
     4    27    28    2
     5    27    29   am
     6    29     1    1
     7     1     2   ar
     8     2     3   ar
     9     3     4   ar
    10     4     7    1
    11     7     8    1
    12     8     9    1
    13     9    10    1
    14    10    15    1
    15    15    16    1
    16    16    17    1
    17    17    18   ar
    18    18    19   ar
    19    19    20   ar
    20    20    21   ar
    21    21    23    1
    22    23    24    2
    23    23    25    1
    24    21    22   ar
    25    10    11    1
    26    11    12    1
    27    11    13    1
    28     4     5   ar
    29     5     6   ar
    30    33    34   ar
    31    34    35   ar
    32    35    36   ar
    33    36    37   ar
    34    37    38   ar
    35    38    41    1
    36    41    42   ar
    37    42    43   ar
    38    43    44   ar
    39    44    45   ar
    40    45    46   ar
    41    38    39   ar
    42    39    40   ar
    43    40    32   ar
    44     6     1   ar
    45    40    35   ar
    46    13     7    1
    47    46    41   ar
    48    22    17   ar
    49    29    30    1
    50    25    26    1
    51    12    14    1
@<TRIPOS>MOLECULE
*****
 46 51 0 0 0
SMALL
GASTEIGER

@<TRIPOS>ATOM
      1 C         -64.3251  -52.2093  -24.6810 C.ar    1  UNL1        0.0702
      2 C         -63.6550  -52.5398  -23.4981 C.ar    1  UNL1        0.0191
      3 C         -64.1683  -53.5194  -22.6467 C.ar    1  UNL1        0.0356
      4 C         -65.3757  -54.1641  -22.9733 C.ar    1  UNL1        0.1319
      5 N         -66.0209  -53.8033  -24.1186 N.ar    1  UNL1       -0.2279
      6 C         -65.5380  -52.8554  -24.9641 C.ar    1  UNL1        0.1149
      7 N         -65.9372  -55.1930  -22.1231 N.pl3   1  UNL1       -0.2908
      8 C         -66.4980  -56.4257  -22.7037 C.3     1  UNL1        0.0925
      9 C         -67.2943  -57.2341  -21.6693 C.3     1  UNL1        0.0277
     10 C         -68.2247  -56.3067  -20.8630 C.3     1  UNL1        0.0740
     11 C         -67.4434  -55.1477  -20.1610 C.3     1  UNL1        0.1338
     12 O         -68.1053  -53.9275  -20.3789 O.3     1  UNL1       -0.3826
     13 C         -65.9951  -55.0150  -20.6636 C.3     1  UNL1        0.1214
     14 H         -68.8816  -53.9054  -19.7612 H       1  UNL1        0.2104
     15 C         -69.0418  -57.1344  -19.8500 C.3     1  UNL1        0.2078
     16 O         -68.9203  -56.6035  -18.5295 O.3     1  UNL1       -0.4754
     17 C         -69.9407  -55.9596  -17.8103 C.ar    1  UNL1        0.1388
     18 C         -70.2048  -56.2299  -16.4541 C.ar    1  UNL1        0.0369
     19 C         -71.2360  -55.5601  -15.7926 C.ar    1  UNL1        0.0033
     20 C         -72.0106  -54.6157  -16.4692 C.ar    1  UNL1        0.0066
     21 C         -71.7591  -54.3282  -17.8210 C.ar    1  UNL1        0.0785
     22 C         -70.7181  -55.0068  -18.4809 C.ar    1  UNL1        0.0433
     23 C         -72.5802  -53.3264  -18.5364 C.2     1  UNL1        0.3381
     24 O         -73.8390  -53.3824  -18.4915 O.2     1  UNL1       -0.2451
     25 O         -71.9690  -52.3107  -19.2672 O.3     1  UNL1       -0.4771
     26 H         -72.5216  -51.6197  -19.7606 H       1  UNL1        0.2954
     27 C         -63.9925  -49.7754  -25.3216 C.2     1  UNL1        0.2839
     28 O         -64.8618  -49.3745  -24.5018 O.2     1  UNL1       -0.2665
     29 N         -63.7953  -51.1823  -25.5367 N.am    1  UNL1       -0.2766
     30 H         -63.3097  -51.4809  -26.4128 H       1  UNL1        0.1553
     31 C         -64.1154  -49.2691  -28.4842 C.3     1  UNL1        0.0345
     32 C         -63.2530  -48.5735  -27.4743 C.ar    1  UNL1        0.0202
     33 C         -63.2018  -48.7983  -26.0940 C.ar    1  UNL1        0.1946
     34 O         -62.3194  -47.9882  -25.5364 O.2     1  UNL1       -0.4492
     35 C         -61.7951  -47.2501  -26.4841 C.ar    1  UNL1        0.1452
     36 C         -60.8256  -46.2630  -26.3460 C.ar    1  UNL1        0.0375
     37 C         -60.4029  -45.5863  -27.5031 C.ar    1  UNL1        0.0031
     38 C         -60.9522  -45.9044  -28.7747 C.ar    1  UNL1        0.0002
     39 C         -61.9370  -46.9167  -28.8716 C.ar    1  UNL1        0.0028
     40 C         -62.3329  -47.5681  -27.7024 C.ar    1  UNL1        0.0337
     41 C         -60.4980  -45.1824  -29.9903 C.ar    1  UNL1        0.0000
     42 C         -61.3867  -44.3601  -30.7086 C.ar    1  UNL1        0.0000
     43 C         -60.9564  -43.6824  -31.8535 C.ar    1  UNL1        0.0000
     44 C         -59.6376  -43.8161  -32.2932 C.ar    1  UNL1        0.0000
     45 C         -58.7461  -44.6286  -31.5892 C.ar    1  UNL1        0.0000
     46 C         -59.1712  -45.3094  -30.4442 C.ar    1  UNL1        0.0000
@<TRIPOS>BOND
     1    31    32    1
     2    32    33   ar
     3    33    27    1
     4    27    28    2
     5    27    29   am
     6    29     1    1
     7     1     2   ar
     8     2     3   ar
     9     3     4   ar
    10     4     7    1
    11     7     8    1
    12     8     9    1
    13     9    10    1
    14    10    15    1
    15    15    16    1
    16    16    17    1
    17    17    18   ar
    18    18    19   ar
    19    19    20   ar
    20    20    21   ar
    21    21    23    1
    22    23    24    2
    23    23    25    1
    24    21    22   ar
    25    10    11    1
    26    11    12    1
    27    11    13    1
    28     4     5   ar
    29     5     6   ar
    30    33    34   ar
    31    34    35   ar
    32    35    36   ar
    33    36    37   ar
    34    37    38   ar
    35    38    41    1
    36    41    42   ar
    37    42    43   ar
    38    43    44   ar
    39    44    45   ar
    40    45    46   ar
    41    38    39   ar
    42    39    40   ar
    43    40    32   ar
    44     6     1   ar
    45    40    35   ar
    46    13     7    1
    47    46    41   ar
    48    22    17   ar
    49    29    30    1
    50    25    26    1
    51    12    14    1
@<TRIPOS>MOLECULE
*****
 46 51 0 0 0
SMALL
GASTEIGER

@<TRIPOS>ATOM
      1 C         -63.9058  -51.1454  -24.0465 C.ar    1  UNL1        0.0702
      2 C         -63.9093  -49.8595  -24.5980 C.ar    1  UNL1        0.0191
      3 C         -62.8828  -48.9618  -24.3009 C.ar    1  UNL1        0.0356
      4 C         -61.8492  -49.3485  -23.4278 C.ar    1  UNL1        0.1319
      5 N         -61.8853  -50.5980  -22.8841 N.ar    1  UNL1       -0.2279
      6 C         -62.8724  -51.4897  -23.1620 C.ar    1  UNL1        0.1149
      7 N         -60.7602  -48.4516  -23.1015 N.pl3   1  UNL1       -0.2908
      8 C         -60.5926  -47.9391  -21.7302 C.3     1  UNL1        0.0925
      9 C         -59.5736  -46.7922  -21.6690 C.3     1  UNL1        0.0277
     10 C         -59.8280  -45.7859  -22.8085 C.3     1  UNL1        0.0740
     11 C         -59.7965  -46.4649  -24.2172 C.3     1  UNL1        0.1338
     12 O         -60.9010  -46.0401  -24.9748 O.3     1  UNL1       -0.3826
     13 C         -59.8189  -48.0015  -24.1390 C.3     1  UNL1        0.1214
     14 H         -60.6916  -45.1281  -25.3051 H       1  UNL1        0.2104
     15 C         -58.8189  -44.6230  -22.7170 C.3     1  UNL1        0.2078
     16 O         -59.4117  -43.3893  -23.1258 O.3     1  UNL1       -0.4754
     17 C         -60.3646  -42.6591  -22.3966 C.ar    1  UNL1        0.1388
     18 C         -60.2297  -42.3903  -21.0213 C.ar    1  UNL1        0.0369
     19 C         -61.2127  -41.6616  -20.3487 C.ar    1  UNL1        0.0033
     20 C         -62.3343  -41.1914  -21.0347 C.ar    1  UNL1        0.0066
     21 C         -62.4842  -41.4446  -22.4082 C.ar    1  UNL1        0.0785
     22 C         -61.4895  -42.1793  -23.0794 C.ar    1  UNL1        0.0433
     23 C         -63.6729  -40.9449  -23.1340 C.2     1  UNL1        0.3381
     24 O         -64.0149  -41.4613  -24.2323 O.2     1  UNL1       -0.2451
     25 O         -64.4264  -39.8976  -22.6098 O.3     1  UNL1       -0.4771
     26 H         -65.2420  -39.5478  -23.0984 H       1  UNL1        0.2954
     27 C         -65.2296  -53.2702  -23.6254 C.2     1  UNL1        0.2839
     28 O         -64.3541  -53.7377  -22.8485 O.2     1  UNL1       -0.2665
     29 N         -64.9821  -52.0512  -24.3446 N.am    1  UNL1       -0.2766
     30 H         -65.5668  -51.8521  -25.1878 H       1  UNL1        0.1553
     31 C         -67.8554  -53.1139  -21.7940 C.3     1  UNL1        0.0345
     32 C         -67.6459  -53.9309  -23.0334 C.ar    1  UNL1        0.0202
     33 C         -66.4971  -53.9969  -23.8299 C.ar    1  UNL1        0.1946
     34 O         -66.6939  -54.8265  -24.8392 O.2     1  UNL1       -0.4492
     35 C         -67.9109  -55.3025  -24.7380 C.ar    1  UNL1        0.1452
     36 C         -68.5364  -56.2075  -25.5884 C.ar    1  UNL1        0.0375
     37 C         -69.8575  -56.5858  -25.2933 C.ar    1  UNL1        0.0031
     38 C         -70.5306  -56.0572  -24.1587 C.ar    1  UNL1        0.0002
     39 C         -69.8572  -55.1385  -23.3181 C.ar    1  UNL1        0.0028
     40 C         -68.5460  -54.7854  -23.6409 C.ar    1  UNL1        0.0337
     41 C         -71.9266  -56.4642  -23.8572 C.ar    1  UNL1        0.0000
     42 C         -72.8292  -56.7517  -24.8986 C.ar    1  UNL1        0.0000
     43 C         -74.1434  -57.1337  -24.6116 C.ar    1  UNL1        0.0000
     44 C         -74.5707  -57.2338  -23.2859 C.ar    1  UNL1        0.0000
     45 C         -73.6848  -56.9515  -22.2437 C.ar    1  UNL1        0.0000
     46 C         -72.3698  -56.5681  -22.5248 C.ar    1  UNL1        0.0000
@<TRIPOS>BOND
     1    31    32    1
     2    32    33   ar
     3    33    27    1
     4    27    28    2
     5    27    29   am
     6    29     1    1
     7     1     2   ar
     8     2     3   ar
     9     3     4   ar
    10     4     7    1
    11     7     8    1
    12     8     9    1
    13     9    10    1
    14    10    15    1
    15    15    16    1
    16    16    17    1
    17    17    18   ar
    18    18    19   ar
    19    19    20   ar
    20    20    21   ar
    21    21    23    1
    22    23    24    2
    23    23    25    1
    24    21    22   ar
    25    10    11    1
    26    11    12    1
    27    11    13    1
    28     4     5   ar
    29     5     6   ar
    30    33    34   ar
    31    34    35   ar
    32    35    36   ar
    33    36    37   ar
    34    37    38   ar
    35    38    41    1
    36    41    42   ar
    37    42    43   ar
    38    43    44   ar
    39    44    45   ar
    40    45    46   ar
    41    38    39   ar
    42    39    40   ar
    43    40    32   ar
    44     6     1   ar
    45    40    35   ar
    46    13     7    1
    47    46    41   ar
    48    22    17   ar
    49    29    30    1
    50    25    26    1
    51    12    14    1
@<TRIPOS>MOLECULE
*****
 46 51 0 0 0
SMALL
GASTEIGER

@<TRIPOS>ATOM
      1 C         -64.8692  -53.0818  -24.7376 C.ar    1  UNL1        0.0702
      2 C         -64.9783  -53.5380  -26.0557 C.ar    1  UNL1        0.0191
      3 C         -65.9928  -54.4276  -26.4125 C.ar    1  UNL1        0.0356
      4 C         -66.8987  -54.8803  -25.4355 C.ar    1  UNL1        0.1319
      5 N         -66.7525  -54.4401  -24.1537 N.ar    1  UNL1       -0.2279
      6 C         -65.7750  -53.5713  -23.7844 C.ar    1  UNL1        0.1149
      7 N         -67.9717  -55.7950  -25.7656 N.pl3   1  UNL1       -0.2908
      8 C         -68.1666  -56.2575  -27.1510 C.3     1  UNL1        0.0925
      9 C         -69.5136  -56.9721  -27.3311 C.3     1  UNL1        0.0277
     10 C         -70.6422  -56.1702  -26.6536 C.3     1  UNL1        0.0740
     11 C         -70.3611  -55.9170  -25.1359 C.3     1  UNL1        0.1338
     12 O         -70.6093  -54.5695  -24.8244 O.3     1  UNL1       -0.3826
     13 C         -68.9146  -56.2536  -24.7333 C.3     1  UNL1        0.1214
     14 H         -71.5937  -54.4650  -24.7566 H       1  UNL1        0.2104
     15 C         -71.9938  -56.8814  -26.8687 C.3     1  UNL1        0.2078
     16 O         -72.9944  -55.9670  -27.3194 O.3     1  UNL1       -0.4754
     17 C         -73.4972  -55.8854  -28.6285 C.ar    1  UNL1        0.1388
     18 C         -73.7946  -57.0227  -29.4031 C.ar    1  UNL1        0.0369
     19 C         -74.2889  -56.8785  -30.7009 C.ar    1  UNL1        0.0033
     20 C         -74.4950  -55.6066  -31.2391 C.ar    1  UNL1        0.0066
     21 C         -74.2094  -54.4597  -30.4800 C.ar    1  UNL1        0.0785
     22 C         -73.7119  -54.6128  -29.1728 C.ar    1  UNL1        0.0433
     23 C         -74.4292  -53.1126  -31.0514 C.2     1  UNL1        0.3381
     24 O         -74.1069  -52.8643  -32.2448 O.2     1  UNL1       -0.2451
     25 O         -74.9951  -52.1047  -30.2748 O.3     1  UNL1       -0.4771
     26 H         -75.1501  -51.1790  -30.6560 H       1  UNL1        0.2954
     27 C         -63.7436  -50.8068  -24.7903 C.2     1  UNL1        0.2839
     28 O         -64.5020  -50.3818  -25.7029 O.2     1  UNL1       -0.2665
     29 N         -63.8051  -52.1827  -24.3808 N.am    1  UNL1       -0.2766
     30 H         -62.9869  -52.5774  -23.8637 H       1  UNL1        0.1553
     31 C         -62.4758  -48.1614  -26.0816 C.3     1  UNL1        0.0345
     32 C         -62.2052  -48.7441  -24.7271 C.ar    1  UNL1        0.0202
     33 C         -62.7604  -49.9003  -24.1673 C.ar    1  UNL1        0.1946
     34 O         -62.2777  -50.0911  -22.9523 O.2     1  UNL1       -0.4492
     35 C         -61.4375  -49.1185  -22.6954 C.ar    1  UNL1        0.1452
     36 C         -60.7020  -48.9242  -21.5315 C.ar    1  UNL1        0.0375
     37 C         -59.8547  -47.8047  -21.4652 C.ar    1  UNL1        0.0031
     38 C         -59.7551  -46.9007  -22.5573 C.ar    1  UNL1        0.0002
     39 C         -60.5209  -47.1356  -23.7246 C.ar    1  UNL1        0.0028
     40 C         -61.3514  -48.2569  -23.7559 C.ar    1  UNL1        0.0337
     41 C         -58.8565  -45.7212  -22.4757 C.ar    1  UNL1        0.0000
     42 C         -59.3883  -44.4193  -22.4110 C.ar    1  UNL1        0.0000
     43 C         -58.5397  -43.3105  -22.3352 C.ar    1  UNL1        0.0000
     44 C         -57.1545  -43.4875  -22.3222 C.ar    1  UNL1        0.0000
     45 C         -56.6145  -44.7740  -22.3855 C.ar    1  UNL1        0.0000
     46 C         -57.4582  -45.8863  -22.4624 C.ar    1  UNL1        0.0000
@<TRIPOS>BOND
     1    31    32    1
     2    32    33   ar
     3    33    27    1
     4    27    28    2
     5    27    29   am
     6    29     1    1
     7     1     2   ar
     8     2     3   ar
     9     3     4   ar
    10     4     7    1
    11     7     8    1
    12     8     9    1
    13     9    10    1
    14    10    15    1
    15    15    16    1
    16    16    17    1
    17    17    18   ar
    18    18    19   ar
    19    19    20   ar
    20    20    21   ar
    21    21    23    1
    22    23    24    2
    23    23    25    1
    24    21    22   ar
    25    10    11    1
    26    11    12    1
    27    11    13    1
    28     4     5   ar
    29     5     6   ar
    30    33    34   ar
    31    34    35   ar
    32    35    36   ar
    33    36    37   ar
    34    37    38   ar
    35    38    41    1
    36    41    42   ar
    37    42    43   ar
    38    43    44   ar
    39    44    45   ar
    40    45    46   ar
    41    38    39   ar
    42    39    40   ar
    43    40    32   ar
    44     6     1   ar
    45    40    35   ar
    46    13     7    1
    47    46    41   ar
    48    22    17   ar
    49    29    30    1
    50    25    26    1
    51    12    14    1
@<TRIPOS>MOLECULE
*****
 46 51 0 0 0
SMALL
GASTEIGER

@<TRIPOS>ATOM
      1 C         -62.4601  -41.6454  -20.9204 C.ar    1  UNL1        0.0702
      2 C         -62.8783  -42.1185  -22.1689 C.ar    1  UNL1        0.0191
      3 C         -62.2160  -43.1861  -22.7766 C.ar    1  UNL1        0.0356
      4 C         -61.1110  -43.7767  -22.1361 C.ar    1  UNL1        0.1319
      5 N         -60.7089  -43.2782  -20.9328 N.ar    1  UNL1       -0.2279
      6 C         -61.3407  -42.2423  -20.3209 C.ar    1  UNL1        0.1149
      7 N         -60.4024  -44.8928  -22.7271 N.pl3   1  UNL1       -0.2908
      8 C         -60.8563  -45.4842  -23.9981 C.3     1  UNL1        0.0925
      9 C         -60.1564  -46.8193  -24.2897 C.3     1  UNL1        0.0277
     10 C         -60.1384  -47.7037  -23.0275 C.3     1  UNL1        0.0740
     11 C         -59.4598  -46.9894  -21.8127 C.3     1  UNL1        0.1338
     12 O         -60.2552  -47.1443  -20.6647 O.3     1  UNL1       -0.3826
     13 C         -59.2365  -45.4862  -22.0537 C.3     1  UNL1        0.1214
     14 H         -60.1027  -48.0658  -20.3295 H       1  UNL1        0.2104
     15 C         -59.4617  -49.0535  -23.3417 C.3     1  UNL1        0.2078
     16 O         -60.1444  -50.1356  -22.7066 O.3     1  UNL1       -0.4754
     17 C         -61.3520  -50.7073  -23.1403 C.ar    1  UNL1        0.1388
     18 C         -61.7278  -52.0266  -22.8238 C.ar    1  UNL1        0.0369
     19 C         -62.9401  -52.5416  -23.2872 C.ar    1  UNL1        0.0033
     20 C         -63.7898  -51.7520  -24.0646 C.ar    1  UNL1        0.0066
     21 C         -63.4350  -50.4316  -24.3865 C.ar    1  UNL1        0.0785
     22 C         -62.2121  -49.9193  -23.9157 C.ar    1  UNL1        0.0433
     23 C         -64.3370  -49.5958  -25.2095 C.2     1  UNL1        0.3381
     24 O         -64.1207  -49.4455  -26.4426 O.2     1  UNL1       -0.2451
     25 O         -65.4352  -48.9664  -24.6288 O.3     1  UNL1       -0.4771
     26 H         -66.0590  -48.3921  -25.1830 H       1  UNL1        0.2954
     27 C         -62.7780  -39.1564  -20.5344 C.2     1  UNL1        0.2839
     28 O         -61.6761  -38.8671  -21.0736 O.2     1  UNL1       -0.2665
     29 N         -63.1388  -40.5302  -20.3174 N.am    1  UNL1       -0.2766
     30 H         -63.8842  -40.7361  -19.6142 H       1  UNL1        0.1553
     31 C         -65.9768  -39.1267  -20.7349 C.3     1  UNL1        0.0345
     32 C         -65.0808  -38.0650  -20.1716 C.ar    1  UNL1        0.0202
     33 C         -63.6840  -38.0816  -20.0868 C.ar    1  UNL1        0.1946
     34 O         -63.2518  -36.9656  -19.5269 O.2     1  UNL1       -0.4492
     35 C         -64.2963  -36.2257  -19.2448 C.ar    1  UNL1        0.1452
     36 C         -64.3045  -34.9705  -18.6467 C.ar    1  UNL1        0.0375
     37 C         -65.5471  -34.3495  -18.4324 C.ar    1  UNL1        0.0031
     38 C         -66.7569  -34.9885  -18.8171 C.ar    1  UNL1        0.0002
     39 C         -66.7041  -36.2664  -19.4237 C.ar    1  UNL1        0.0028
     40 C         -65.4533  -36.8533  -19.6215 C.ar    1  UNL1        0.0337
     41 C         -68.0638  -34.3226  -18.5854 C.ar    1  UNL1        0.0000
     42 C         -69.2180  -34.7545  -19.2663 C.ar    1  UNL1        0.0000
     43 C         -70.4471  -34.1248  -19.0468 C.ar    1  UNL1        0.0000
     44 C         -70.5388  -33.0605  -18.1472 C.ar    1  UNL1        0.0000
     45 C         -69.4012  -32.6229  -17.4653 C.ar    1  UNL1        0.0000
     46 C         -68.1694  -33.2481  -17.6815 C.ar    1  UNL1        0.0000
@<TRIPOS>BOND
     1    31    32    1
     2    32    33   ar
     3    33    27    1
     4    27    28    2
     5    27    29   am
     6    29     1    1
     7     1     2   ar
     8     2     3   ar
     9     3     4   ar
    10     4     7    1
    11     7     8    1
    12     8     9    1
    13     9    10    1
    14    10    15    1
    15    15    16    1
    16    16    17    1
    17    17    18   ar
    18    18    19   ar
    19    19    20   ar
    20    20    21   ar
    21    21    23    1
    22    23    24    2
    23    23    25    1
    24    21    22   ar
    25    10    11    1
    26    11    12    1
    27    11    13    1
    28     4     5   ar
    29     5     6   ar
    30    33    34   ar
    31    34    35   ar
    32    35    36   ar
    33    36    37   ar
    34    37    38   ar
    35    38    41    1
    36    41    42   ar
    37    42    43   ar
    38    43    44   ar
    39    44    45   ar
    40    45    46   ar
    41    38    39   ar
    42    39    40   ar
    43    40    32   ar
    44     6     1   ar
    45    40    35   ar
    46    13     7    1
    47    46    41   ar
    48    22    17   ar
    49    29    30    1
    50    25    26    1
    51    12    14    1
