@<TRIPOS>MOLECULE
*****
 45 50 0 0 0
SMALL
GASTEIGER

@<TRIPOS>ATOM
      1 C          58.9157   89.1910    5.6496 C.ar    1  UNL1        0.0702
      2 C          60.1657   89.3955    5.0464 C.ar    1  UNL1        0.0191
      3 C          60.2960   90.2969    3.9886 C.ar    1  UNL1        0.0356
      4 C          59.1656   90.9920    3.5203 C.ar    1  UNL1        0.1318
      5 N          57.9609   90.7579    4.1134 N.ar    1  UNL1       -0.2279
      6 C          57.8106   89.8854    5.1442 C.ar    1  UNL1        0.1149
      7 N          59.2563   91.9286    2.4199 N.pl3   1  UNL1       -0.2932
      8 C          58.3050   91.8628    1.2989 C.3     1  UNL1        0.0923
      9 C          59.0445   91.7752   -0.0473 C.3     1  UNL1        0.0252
     10 C          60.3792   92.5667   -0.0741 C.3     1  UNL1        0.0472
     11 C          60.4219   93.6403    1.0294 C.3     1  UNL1        0.0252
     12 C          60.2898   92.9798    2.4096 C.3     1  UNL1        0.0923
     13 C          60.6196   93.1882   -1.4639 C.3     1  UNL1        0.2054
     14 O          61.8800   92.7835   -2.0017 O.3     1  UNL1       -0.4755
     15 C          62.9872   92.3499   -1.2539 C.ar    1  UNL1        0.1388
     16 C          63.9958   91.5292   -1.7928 C.ar    1  UNL1        0.0369
     17 C          65.0665   91.1191   -0.9969 C.ar    1  UNL1        0.0033
     18 C          65.1498   91.5273    0.3356 C.ar    1  UNL1        0.0066
     19 C          64.1635   92.3626    0.8881 C.ar    1  UNL1        0.0785
     20 C          63.0812   92.7617    0.0819 C.ar    1  UNL1        0.0433
     21 C          64.2633   92.7886    2.3054 C.2     1  UNL1        0.3381
     22 O          64.8855   93.8444    2.5981 O.2     1  UNL1       -0.2451
     23 O          63.6710   92.0590    3.3357 O.3     1  UNL1       -0.4771
     24 H          63.0708   91.2628    3.1652 H       1  UNL1        0.2954
     25 C          59.6793   87.2169    7.0438 C.2     1  UNL1        0.2839
     26 O          60.8952   87.3566    6.7429 O.2     1  UNL1       -0.2665
     27 N          58.7378   88.2523    6.7244 N.am    1  UNL1       -0.2766
     28 H          57.9346   88.3977    7.3760 H       1  UNL1        0.1553
     29 C          61.4370   85.5249    9.1668 C.3     1  UNL1        0.0345
     30 C          60.0304   85.2796    8.7104 C.ar    1  UNL1        0.0202
     31 C          59.2686   86.0185    7.7964 C.ar    1  UNL1        0.1946
     32 O          58.0604   85.4943    7.6876 O.2     1  UNL1       -0.4492
     33 C          58.0066   84.4411    8.4660 C.ar    1  UNL1        0.1452
     34 C          56.9276   83.5848    8.6561 C.ar    1  UNL1        0.0375
     35 C          57.0894   82.5063    9.5435 C.ar    1  UNL1        0.0031
     36 C          58.3205   82.3008   10.2236 C.ar    1  UNL1        0.0002
     37 C          59.3936   83.1970   10.0016 C.ar    1  UNL1        0.0028
     38 C          59.1969   84.2560    9.1149 C.ar    1  UNL1        0.0337
     39 C          58.4805   81.1575   11.1576 C.ar    1  UNL1        0.0001
     40 C          58.9468   81.3649   12.4694 C.ar    1  UNL1        0.0009
     41 C          59.0978   80.2868   13.3467 C.ar    1  UNL1        0.0114
     42 C          58.7850   78.9909   12.9268 C.ar    1  UNL1        0.0577
     43 CL         58.9749   77.6402   14.0297 Cl      1  UNL1       -0.0822
     44 C          58.3209   78.7729   11.6265 C.ar    1  UNL1        0.0114
     45 C          58.1694   79.8479   10.7456 C.ar    1  UNL1        0.0009
@<TRIPOS>BOND
     1    29    30    1
     2    30    31   ar
     3    31    25    1
     4    25    26    2
     5    25    27   am
     6    27     1    1
     7     1     2   ar
     8     2     3   ar
     9     3     4   ar
    10     4     7    1
    11     7     8    1
    12     8     9    1
    13     9    10    1
    14    10    13    1
    15    13    14    1
    16    14    15    1
    17    15    16   ar
    18    16    17   ar
    19    17    18   ar
    20    18    19   ar
    21    19    21    1
    22    21    22    2
    23    21    23    1
    24    19    20   ar
    25    10    11    1
    26    11    12    1
    27     4     5   ar
    28     5     6   ar
    29    31    32   ar
    30    32    33   ar
    31    33    34   ar
    32    34    35   ar
    33    35    36   ar
    34    36    39    1
    35    39    40   ar
    36    40    41   ar
    37    41    42   ar
    38    42    43    1
    39    42    44   ar
    40    44    45   ar
    41    36    37   ar
    42    37    38   ar
    43    38    30   ar
    44     6     1   ar
    45    38    33   ar
    46    12     7    1
    47    45    39   ar
    48    20    15   ar
    49    27    28    1
    50    23    24    1
@<TRIPOS>MOLECULE
*****
 45 50 0 0 0
SMALL
GASTEIGER

@<TRIPOS>ATOM
      1 C          59.1782   89.3852    6.0800 C.ar    1  UNL1        0.0702
      2 C          60.3834   89.4602    5.3658 C.ar    1  UNL1        0.0191
      3 C          60.4424   90.1594    4.1592 C.ar    1  UNL1        0.0356
      4 C          59.2846   90.7798    3.6543 C.ar    1  UNL1        0.1318
      5 N          58.1238   90.6731    4.3607 N.ar    1  UNL1       -0.2279
      6 C          58.0430   89.9979    5.5371 C.ar    1  UNL1        0.1149
      7 N          59.3013   91.5068    2.4024 N.pl3   1  UNL1       -0.2932
      8 C          58.3955   91.1310    1.3049 C.3     1  UNL1        0.0923
      9 C          59.1780   90.8879    0.0029 C.3     1  UNL1        0.0252
     10 C          60.4161   91.8100   -0.1576 C.3     1  UNL1        0.0472
     11 C          60.3072   93.0625    0.7320 C.3     1  UNL1        0.0252
     12 C          60.2106   92.6508    2.2084 C.3     1  UNL1        0.0923
     13 C          60.6249   92.1943   -1.6355 C.3     1  UNL1        0.2054
     14 O          62.0038   92.1157   -2.0018 O.3     1  UNL1       -0.4755
     15 C          63.0770   92.6452   -1.2662 C.ar    1  UNL1        0.1388
     16 C          64.1337   93.3559   -1.8657 C.ar    1  UNL1        0.0369
     17 C          65.1805   93.8479   -1.0845 C.ar    1  UNL1        0.0033
     18 C          65.1823   93.6469    0.2971 C.ar    1  UNL1        0.0066
     19 C          64.1271   92.9567    0.9183 C.ar    1  UNL1        0.0785
     20 C          63.0816   92.4537    0.1216 C.ar    1  UNL1        0.0433
     21 C          64.1414   92.7493    2.3870 C.2     1  UNL1        0.3381
     22 O          64.7263   93.5820    3.1299 O.2     1  UNL1       -0.2451
     23 O          63.5080   91.6584    2.9815 O.3     1  UNL1       -0.4771
     24 H          62.9334   91.0101    2.4592 H       1  UNL1        0.2954
     25 C          60.2003   88.2858    8.1222 C.2     1  UNL1        0.2839
     26 O          61.2591   88.9677    8.0735 O.2     1  UNL1       -0.2665
     27 N          59.0728   88.6530    7.3131 N.am    1  UNL1       -0.2766
     28 H          58.1186   88.4722    7.6974 H       1  UNL1        0.1553
     29 C          59.6383   85.1685    7.4692 C.3     1  UNL1        0.0345
     30 C          59.8695   85.8189    8.7997 C.ar    1  UNL1        0.0202
     31 C          60.1204   87.1682    9.0792 C.ar    1  UNL1        0.1946
     32 O          60.3008   87.3345   10.3777 O.2     1  UNL1       -0.4492
     33 C          60.1576   86.1676   10.9571 C.ar    1  UNL1        0.1452
     34 C          60.2569   85.8795   12.3139 C.ar    1  UNL1        0.0375
     35 C          60.0635   84.5480   12.7217 C.ar    1  UNL1        0.0031
     36 C          59.7751   83.5298   11.7727 C.ar    1  UNL1        0.0002
     37 C          59.6837   83.8663   10.4007 C.ar    1  UNL1        0.0028
     38 C          59.8819   85.1973   10.0325 C.ar    1  UNL1        0.0337
     39 C          59.5714   82.1270   12.2150 C.ar    1  UNL1        0.0001
     40 C          58.3150   81.5081   12.0759 C.ar    1  UNL1        0.0009
     41 C          58.1252   80.1875   12.4941 C.ar    1  UNL1        0.0114
     42 C          59.1852   79.4694   13.0546 C.ar    1  UNL1        0.0577
     43 CL         58.9444   77.8127   13.5780 Cl      1  UNL1       -0.0822
     44 C          60.4375   80.0737   13.1975 C.ar    1  UNL1        0.0114
     45 C          60.6314   81.3942   12.7815 C.ar    1  UNL1        0.0009
@<TRIPOS>BOND
     1    29    30    1
     2    30    31   ar
     3    31    25    1
     4    25    26    2
     5    25    27   am
     6    27     1    1
     7     1     2   ar
     8     2     3   ar
     9     3     4   ar
    10     4     7    1
    11     7     8    1
    12     8     9    1
    13     9    10    1
    14    10    13    1
    15    13    14    1
    16    14    15    1
    17    15    16   ar
    18    16    17   ar
    19    17    18   ar
    20    18    19   ar
    21    19    21    1
    22    21    22    2
    23    21    23    1
    24    19    20   ar
    25    10    11    1
    26    11    12    1
    27     4     5   ar
    28     5     6   ar
    29    31    32   ar
    30    32    33   ar
    31    33    34   ar
    32    34    35   ar
    33    35    36   ar
    34    36    39    1
    35    39    40   ar
    36    40    41   ar
    37    41    42   ar
    38    42    43    1
    39    42    44   ar
    40    44    45   ar
    41    36    37   ar
    42    37    38   ar
    43    38    30   ar
    44     6     1   ar
    45    38    33   ar
    46    12     7    1
    47    45    39   ar
    48    20    15   ar
    49    27    28    1
    50    23    24    1
@<TRIPOS>MOLECULE
*****
 45 50 0 0 0
SMALL
GASTEIGER

@<TRIPOS>ATOM
      1 C          59.5065   89.0058    5.7693 C.ar    1  UNL1        0.0702
      2 C          60.6622   89.3043    5.0321 C.ar    1  UNL1        0.0191
      3 C          60.6052   90.2135    3.9745 C.ar    1  UNL1        0.0356
      4 C          59.3806   90.8217    3.6417 C.ar    1  UNL1        0.1318
      5 N          58.2710   90.4970    4.3636 N.ar    1  UNL1       -0.2279
      6 C          58.3029   89.6152    5.3969 C.ar    1  UNL1        0.1149
      7 N          59.2770   91.7629    2.5465 N.pl3   1  UNL1       -0.2932
      8 C          58.3331   91.5276    1.4421 C.3     1  UNL1        0.0923
      9 C          59.0505   91.5822    0.0824 C.3     1  UNL1        0.0252
     10 C          60.2164   92.6057    0.0374 C.3     1  UNL1        0.0472
     11 C          60.0820   93.6648    1.1475 C.3     1  UNL1        0.0252
     12 C          60.0994   92.9862    2.5251 C.3     1  UNL1        0.0923
     13 C          60.3124   93.2659   -1.3521 C.3     1  UNL1        0.2054
     14 O          61.5668   92.9829   -1.9749 O.3     1  UNL1       -0.4755
     15 C          62.7037   92.4701   -1.3286 C.ar    1  UNL1        0.1388
     16 C          63.6894   91.7229   -2.0005 C.ar    1  UNL1        0.0369
     17 C          64.7918   91.2276   -1.3023 C.ar    1  UNL1        0.0033
     18 C          64.9295   91.4774    0.0643 C.ar    1  UNL1        0.0066
     19 C          63.9667   92.2376    0.7505 C.ar    1  UNL1        0.0785
     20 C          62.8522   92.7231    0.0413 C.ar    1  UNL1        0.0433
     21 C          64.1244   92.4952    2.2028 C.2     1  UNL1        0.3381
     22 O          63.4012   91.8774    3.0290 O.2     1  UNL1       -0.2451
     23 O          65.0686   93.3979    2.6908 O.3     1  UNL1       -0.4771
     24 H          65.7507   93.8491    2.0955 H       1  UNL1        0.2954
     25 C          60.5452   88.0048    7.8532 C.2     1  UNL1        0.2839
     26 O          61.2023   89.0425    8.1361 O.2     1  UNL1       -0.2665
     27 N          59.5210   88.0559    6.8488 N.am    1  UNL1       -0.2766
     28 H          58.6867   87.4398    6.9727 H       1  UNL1        0.1553
     29 C          62.1637   87.7240   10.6391 C.3     1  UNL1        0.0345
     30 C          61.5003   86.6506    9.8301 C.ar    1  UNL1        0.0202
     31 C          60.7932   86.7759    8.6276 C.ar    1  UNL1        0.1946
     32 O          60.3343   85.5961    8.2485 O.2     1  UNL1       -0.4492
     33 C          60.7260   84.7090    9.1302 C.ar    1  UNL1        0.1452
     34 C          60.4742   83.3415    9.1230 C.ar    1  UNL1        0.0375
     35 C          60.9957   82.5688   10.1754 C.ar    1  UNL1        0.0031
     36 C          61.7573   83.1710   11.2136 C.ar    1  UNL1        0.0002
     37 C          61.9896   84.5671   11.1829 C.ar    1  UNL1        0.0028
     38 C          61.4564   85.3021   10.1238 C.ar    1  UNL1        0.0337
     39 C          62.3044   82.3448   12.3195 C.ar    1  UNL1        0.0001
     40 C          63.6934   82.1648   12.4587 C.ar    1  UNL1        0.0009
     41 C          64.2063   81.3855   13.5002 C.ar    1  UNL1        0.0114
     42 C          63.3409   80.7781   14.4143 C.ar    1  UNL1        0.0577
     43 CL         63.9870   79.8013   15.7201 Cl      1  UNL1       -0.0822
     44 C          61.9597   80.9500   14.2860 C.ar    1  UNL1        0.0114
     45 C          61.4425   81.7276   13.2457 C.ar    1  UNL1        0.0009
@<TRIPOS>BOND
     1    29    30    1
     2    30    31   ar
     3    31    25    1
     4    25    26    2
     5    25    27   am
     6    27     1    1
     7     1     2   ar
     8     2     3   ar
     9     3     4   ar
    10     4     7    1
    11     7     8    1
    12     8     9    1
    13     9    10    1
    14    10    13    1
    15    13    14    1
    16    14    15    1
    17    15    16   ar
    18    16    17   ar
    19    17    18   ar
    20    18    19   ar
    21    19    21    1
    22    21    22    2
    23    21    23    1
    24    19    20   ar
    25    10    11    1
    26    11    12    1
    27     4     5   ar
    28     5     6   ar
    29    31    32   ar
    30    32    33   ar
    31    33    34   ar
    32    34    35   ar
    33    35    36   ar
    34    36    39    1
    35    39    40   ar
    36    40    41   ar
    37    41    42   ar
    38    42    43    1
    39    42    44   ar
    40    44    45   ar
    41    36    37   ar
    42    37    38   ar
    43    38    30   ar
    44     6     1   ar
    45    38    33   ar
    46    12     7    1
    47    45    39   ar
    48    20    15   ar
    49    27    28    1
    50    23    24    1
