@<TRIPOS>MOLECULE
*****
 34 38 0 0 0
SMALL
GASTEIGER

@<TRIPOS>ATOM
      1 C         -60.0010  -45.7513  -28.1882 C.2     1  UNL1        0.2490
      2 O         -59.1292  -46.6519  -28.0449 O.2     1  UNL1       -0.2699
      3 N         -60.7664  -45.3232  -27.0460 N.am    1  UNL1       -0.2760
      4 C         -60.9328  -43.8979  -26.7443 C.3     1  UNL1        0.0954
      5 C         -60.2181  -43.5537  -25.4289 C.3     1  UNL1        0.0399
      6 C         -60.5805  -44.5117  -24.2573 C.3     1  UNL1        0.0645
      7 C         -60.4035  -45.9850  -24.7185 C.3     1  UNL1        0.0399
      8 C         -61.1627  -46.2847  -26.0149 C.3     1  UNL1        0.0954
      9 C         -62.0594  -44.2758  -23.7749 C.3     1  UNL1        0.0477
     10 C         -62.1636  -43.0225  -22.9612 C.ar    1  UNL1        0.0220
     11 C         -63.2551  -42.2583  -22.6203 C.ar    1  UNL1        0.0923
     12 N         -62.8491  -41.3360  -21.7114 N.ar    1  UNL1       -0.2534
     13 N         -61.5589  -41.5145  -21.4398 N.ar    1  UNL1       -0.1651
     14 C         -61.1437  -42.5412  -22.2011 C.ar    1  UNL1        0.1515
     15 C         -59.8316  -43.1667  -22.2268 C.2     1  UNL1        0.2650
     16 O         -58.9099  -42.7894  -21.4561 O.2     1  UNL1       -0.2684
     17 N         -59.6294  -44.2500  -23.1483 N.am    1  UNL1       -0.3023
     18 H         -58.7031  -44.7348  -23.1360 H       1  UNL1        0.1497
     19 C         -62.9864  -43.7316  -31.6036 C.ar    1  UNL1        0.2248
     20 N         -63.1458  -43.1995  -32.8483 N.ar    1  UNL1       -0.2101
     21 C         -62.1133  -43.0803  -33.7228 C.ar    1  UNL1        0.1021
     22 C         -60.8358  -43.5084  -33.3627 C.ar    1  UNL1        0.0209
     23 C         -60.6284  -44.0612  -32.0928 C.ar    1  UNL1        0.0060
     24 C         -59.3559  -44.5029  -31.7066 C.ar    1  UNL1        0.0003
     25 C         -59.1564  -45.0517  -30.4379 C.ar    1  UNL1        0.0045
     26 C         -60.2231  -45.1617  -29.5302 C.ar    1  UNL1        0.0537
     27 C         -61.5040  -44.7332  -29.9212 C.ar    1  UNL1        0.0092
     28 C         -61.7146  -44.1771  -31.1950 C.ar    1  UNL1        0.0534
     29 C         -64.6814  -42.7024  -30.1154 C.3     1  UNL1        0.2542
     30 O         -64.0810  -43.8327  -30.7361 O.3     1  UNL1       -0.4561
     31 C         -63.7097  -40.3350  -21.0498 C.3     1  UNL1        0.0867
     32 C         -63.0152  -38.9593  -21.0707 C.3     1  UNL1        0.0244
     33 C         -63.9731  -40.7317  -19.5810 C.3     1  UNL1        0.0244
     34 C         -65.0556  -40.2494  -21.7924 C.3     1  UNL1        0.0244
@<TRIPOS>BOND
     1    29    30    1
     2    30    19    1
     3    19    20   ar
     4    20    21   ar
     5    21    22   ar
     6    22    23   ar
     7    23    24   ar
     8    24    25   ar
     9    25    26   ar
    10    26     1    1
    11     1     2    2
    12     1     3   am
    13     3     4    1
    14     4     5    1
    15     5     6    1
    16     6     7    1
    17     7     8    1
    18     6     9    1
    19     9    10    1
    20    10    11   ar
    21    11    12   ar
    22    12    31    1
    23    31    32    1
    24    31    33    1
    25    31    34    1
    26    12    13   ar
    27    13    14   ar
    28    14    15    1
    29    15    16    2
    30    15    17   am
    31    26    27   ar
    32    27    28   ar
    33    28    19   ar
    34    28    23   ar
    35     8     3    1
    36    14    10   ar
    37    17     6    1
    38    17    18    1
@<TRIPOS>MOLECULE
*****
 34 38 0 0 0
SMALL
GASTEIGER

@<TRIPOS>ATOM
      1 C         -61.4391  -46.6108  -27.0466 C.2     1  UNL1        0.2490
      2 O         -60.2241  -46.8497  -27.2877 O.2     1  UNL1       -0.2699
      3 N         -61.8578  -46.3913  -25.6864 N.am    1  UNL1       -0.2760
      4 C         -62.7032  -45.2456  -25.3359 C.3     1  UNL1        0.0954
      5 C         -61.9214  -44.2714  -24.4418 C.3     1  UNL1        0.0399
      6 C         -61.2284  -44.9611  -23.2310 C.3     1  UNL1        0.0645
      7 C         -60.4025  -46.1787  -23.7308 C.3     1  UNL1        0.0399
      8 C         -61.2363  -47.1355  -24.5888 C.3     1  UNL1        0.0954
      9 C         -62.2899  -45.4335  -22.1700 C.3     1  UNL1        0.0477
     10 C         -62.8128  -44.2718  -21.3821 C.ar    1  UNL1        0.0220
     11 C         -63.9436  -44.1435  -20.6098 C.ar    1  UNL1        0.0923
     12 N         -63.8653  -42.9592  -19.9519 N.ar    1  UNL1       -0.2534
     13 N         -62.7162  -42.3582  -20.2493 N.ar    1  UNL1       -0.1651
     14 C         -62.0771  -43.1586  -21.1195 C.ar    1  UNL1        0.1515
     15 C         -60.7551  -42.9815  -21.6979 C.2     1  UNL1        0.2650
     16 O         -60.0279  -42.0023  -21.3849 O.2     1  UNL1       -0.2684
     17 N         -60.2957  -43.9790  -22.6240 N.am    1  UNL1       -0.3023
     18 H         -59.3269  -43.8819  -23.0050 H       1  UNL1        0.1497
     19 C         -63.5944  -44.2409  -30.8407 C.ar    1  UNL1        0.2248
     20 N         -64.5014  -44.2464  -31.8581 N.ar    1  UNL1       -0.2101
     21 C         -65.2898  -45.3211  -32.1198 C.ar    1  UNL1        0.1021
     22 C         -65.1901  -46.4715  -31.3377 C.ar    1  UNL1        0.0209
     23 C         -64.2706  -46.5077  -30.2821 C.ar    1  UNL1        0.0060
     24 C         -64.1526  -47.6493  -29.4781 C.ar    1  UNL1        0.0003
     25 C         -63.2322  -47.6786  -28.4281 C.ar    1  UNL1        0.0045
     26 C         -62.4084  -46.5707  -28.1677 C.ar    1  UNL1        0.0537
     27 C         -62.5359  -45.4185  -28.9635 C.ar    1  UNL1        0.0092
     28 C         -63.4575  -45.3800  -30.0243 C.ar    1  UNL1        0.0534
     29 C         -63.3477  -41.8436  -30.2579 C.3     1  UNL1        0.2542
     30 O         -62.8023  -43.1092  -30.6102 O.3     1  UNL1       -0.4561
     31 C         -64.8525  -42.4390  -18.9848 C.3     1  UNL1        0.0867
     32 C         -64.1729  -41.4230  -18.0461 C.3     1  UNL1        0.0244
     33 C         -65.4329  -43.5871  -18.1309 C.3     1  UNL1        0.0244
     34 C         -66.0014  -41.7545  -19.7475 C.3     1  UNL1        0.0244
@<TRIPOS>BOND
     1    29    30    1
     2    30    19    1
     3    19    20   ar
     4    20    21   ar
     5    21    22   ar
     6    22    23   ar
     7    23    24   ar
     8    24    25   ar
     9    25    26   ar
    10    26     1    1
    11     1     2    2
    12     1     3   am
    13     3     4    1
    14     4     5    1
    15     5     6    1
    16     6     7    1
    17     7     8    1
    18     6     9    1
    19     9    10    1
    20    10    11   ar
    21    11    12   ar
    22    12    31    1
    23    31    32    1
    24    31    33    1
    25    31    34    1
    26    12    13   ar
    27    13    14   ar
    28    14    15    1
    29    15    16    2
    30    15    17   am
    31    26    27   ar
    32    27    28   ar
    33    28    19   ar
    34    28    23   ar
    35     8     3    1
    36    14    10   ar
    37    17     6    1
    38    17    18    1
@<TRIPOS>MOLECULE
*****
 34 38 0 0 0
SMALL
GASTEIGER

@<TRIPOS>ATOM
      1 C         -61.5275  -42.2559  -22.8046 C.2     1  UNL1        0.2490
      2 O         -60.7241  -41.5841  -22.1014 O.2     1  UNL1       -0.2699
      3 N         -61.2003  -43.6170  -23.1426 N.am    1  UNL1       -0.2760
      4 C         -62.1813  -44.6922  -22.9646 C.3     1  UNL1        0.0954
      5 C         -61.7057  -45.6597  -21.8704 C.3     1  UNL1        0.0399
      6 C         -60.2398  -46.1444  -22.0657 C.3     1  UNL1        0.0645
      7 C         -59.3127  -44.9169  -22.2855 C.3     1  UNL1        0.0399
      8 C         -59.8129  -44.0029  -23.4087 C.3     1  UNL1        0.0954
      9 C         -60.1302  -47.1243  -23.2918 C.3     1  UNL1        0.0477
     10 C         -60.6743  -48.4766  -22.9466 C.ar    1  UNL1        0.0220
     11 C         -61.0819  -49.5153  -23.7506 C.ar    1  UNL1        0.0923
     12 N         -61.3087  -50.5917  -22.9559 N.ar    1  UNL1       -0.2534
     13 N         -61.0236  -50.2827  -21.6936 N.ar    1  UNL1       -0.1651
     14 C         -60.6375  -48.9955  -21.6900 C.ar    1  UNL1        0.1515
     15 C         -60.1623  -48.2038  -20.5671 C.2     1  UNL1        0.2650
     16 O         -60.0335  -48.7050  -19.4191 O.2     1  UNL1       -0.2684
     17 N         -59.8205  -46.8313  -20.8186 N.am    1  UNL1       -0.3023
     18 H         -59.4322  -46.2718  -20.0253 H       1  UNL1        0.1497
     19 C         -64.7137  -41.0998  -26.4335 C.ar    1  UNL1        0.2248
     20 N         -65.8765  -40.5037  -26.8215 N.ar    1  UNL1       -0.2101
     21 C         -66.6930  -39.8676  -25.9419 C.ar    1  UNL1        0.1021
     22 C         -66.3559  -39.8059  -24.5900 C.ar    1  UNL1        0.0209
     23 C         -65.1697  -40.4056  -24.1492 C.ar    1  UNL1        0.0060
     24 C         -64.8049  -40.3553  -22.7971 C.ar    1  UNL1        0.0003
     25 C         -63.6211  -40.9570  -22.3646 C.ar    1  UNL1        0.0045
     26 C         -62.7849  -41.6259  -23.2740 C.ar    1  UNL1        0.0537
     27 C         -63.1411  -41.6645  -24.6337 C.ar    1  UNL1        0.0092
     28 C         -64.3319  -41.0640  -25.0786 C.ar    1  UNL1        0.0534
     29 C         -64.0895  -41.6010  -28.7800 C.3     1  UNL1        0.2542
     30 O         -63.9049  -41.7452  -27.3770 O.3     1  UNL1       -0.4561
     31 C         -61.7255  -51.9327  -23.4124 C.3     1  UNL1        0.0867
     32 C         -60.5838  -52.5846  -24.2166 C.3     1  UNL1        0.0244
     33 C         -62.9724  -51.8345  -24.3178 C.3     1  UNL1        0.0244
     34 C         -62.0642  -52.8048  -22.1897 C.3     1  UNL1        0.0244
@<TRIPOS>BOND
     1    29    30    1
     2    30    19    1
     3    19    20   ar
     4    20    21   ar
     5    21    22   ar
     6    22    23   ar
     7    23    24   ar
     8    24    25   ar
     9    25    26   ar
    10    26     1    1
    11     1     2    2
    12     1     3   am
    13     3     4    1
    14     4     5    1
    15     5     6    1
    16     6     7    1
    17     7     8    1
    18     6     9    1
    19     9    10    1
    20    10    11   ar
    21    11    12   ar
    22    12    31    1
    23    31    32    1
    24    31    33    1
    25    31    34    1
    26    12    13   ar
    27    13    14   ar
    28    14    15    1
    29    15    16    2
    30    15    17   am
    31    26    27   ar
    32    27    28   ar
    33    28    19   ar
    34    28    23   ar
    35     8     3    1
    36    14    10   ar
    37    17     6    1
    38    17    18    1
@<TRIPOS>MOLECULE
*****
 34 38 0 0 0
SMALL
GASTEIGER

@<TRIPOS>ATOM
      1 C         -61.1701  -44.9541  -21.8797 C.2     1  UNL1        0.2490
      2 O         -61.0248  -46.0790  -21.3273 O.2     1  UNL1       -0.2699
      3 N         -60.8640  -44.8116  -23.2796 N.am    1  UNL1       -0.2760
      4 C         -61.8026  -44.1485  -24.1904 C.3     1  UNL1        0.0954
      5 C         -62.3562  -45.1629  -25.2023 C.3     1  UNL1        0.0399
      6 C         -61.2511  -46.0018  -25.9072 C.3     1  UNL1        0.0645
      7 C         -60.3027  -46.6123  -24.8384 C.3     1  UNL1        0.0399
      8 C         -59.7522  -45.5550  -23.8761 C.3     1  UNL1        0.0954
      9 C         -60.4258  -45.1144  -26.9108 C.3     1  UNL1        0.0477
     10 C         -61.2097  -44.8483  -28.1592 C.ar    1  UNL1        0.0220
     11 C         -61.0507  -43.8931  -29.1359 C.ar    1  UNL1        0.0923
     12 N         -61.8970  -44.1940  -30.1531 N.ar    1  UNL1       -0.2534
     13 N         -62.5512  -45.3179  -29.8721 N.ar    1  UNL1       -0.1651
     14 C         -62.1315  -45.7146  -28.6586 C.ar    1  UNL1        0.1515
     15 C         -62.4975  -46.9191  -27.9316 C.2     1  UNL1        0.2650
     16 O         -63.2762  -47.7745  -28.4291 O.2     1  UNL1       -0.2684
     17 N         -61.9187  -47.1123  -26.6310 N.am    1  UNL1       -0.3023
     18 H         -62.1404  -48.0001  -26.1251 H       1  UNL1        0.1497
     19 C         -64.6944  -42.6600  -19.2390 C.ar    1  UNL1        0.2248
     20 N         -65.0892  -41.5802  -18.5069 N.ar    1  UNL1       -0.2101
     21 C         -64.2702  -40.5207  -18.2794 C.ar    1  UNL1        0.1021
     22 C         -62.9765  -40.5093  -18.8002 C.ar    1  UNL1        0.0209
     23 C         -62.5309  -41.5992  -19.5583 C.ar    1  UNL1        0.0060
     24 C         -61.2372  -41.6120  -20.0966 C.ar    1  UNL1        0.0003
     25 C         -60.7993  -42.7032  -20.8503 C.ar    1  UNL1        0.0045
     26 C         -61.6435  -43.8038  -21.0730 C.ar    1  UNL1        0.0537
     27 C         -62.9473  -43.7864  -20.5467 C.ar    1  UNL1        0.0092
     28 C         -63.3967  -42.6939  -19.7846 C.ar    1  UNL1        0.0534
     29 C         -65.5955  -44.8836  -18.6137 C.3     1  UNL1        0.2542
     30 O         -65.5740  -43.7298  -19.4455 O.3     1  UNL1       -0.4561
     31 C         -62.0252  -43.4496  -31.4219 C.3     1  UNL1        0.0867
     32 C         -63.3331  -43.8534  -32.1301 C.3     1  UNL1        0.0244
     33 C         -60.8394  -43.7659  -32.3590 C.3     1  UNL1        0.0244
     34 C         -62.0386  -41.9386  -31.1271 C.3     1  UNL1        0.0244
@<TRIPOS>BOND
     1    29    30    1
     2    30    19    1
     3    19    20   ar
     4    20    21   ar
     5    21    22   ar
     6    22    23   ar
     7    23    24   ar
     8    24    25   ar
     9    25    26   ar
    10    26     1    1
    11     1     2    2
    12     1     3   am
    13     3     4    1
    14     4     5    1
    15     5     6    1
    16     6     7    1
    17     7     8    1
    18     6     9    1
    19     9    10    1
    20    10    11   ar
    21    11    12   ar
    22    12    31    1
    23    31    32    1
    24    31    33    1
    25    31    34    1
    26    12    13   ar
    27    13    14   ar
    28    14    15    1
    29    15    16    2
    30    15    17   am
    31    26    27   ar
    32    27    28   ar
    33    28    19   ar
    34    28    23   ar
    35     8     3    1
    36    14    10   ar
    37    17     6    1
    38    17    18    1
@<TRIPOS>MOLECULE
*****
 34 38 0 0 0
SMALL
GASTEIGER

@<TRIPOS>ATOM
      1 C         -60.9905  -45.6278  -26.8554 C.2     1  UNL1        0.2490
      2 O         -59.8479  -46.1592  -26.9138 O.2     1  UNL1       -0.2699
      3 N         -61.6223  -45.4539  -25.5731 N.am    1  UNL1       -0.2760
      4 C         -62.2173  -44.1676  -25.1967 C.3     1  UNL1        0.0954
      5 C         -61.4300  -43.5465  -24.0331 C.3     1  UNL1        0.0399
      6 C         -61.1999  -44.5271  -22.8468 C.3     1  UNL1        0.0645
      7 C         -60.6092  -45.8604  -23.3832 C.3     1  UNL1        0.0399
      8 C         -61.4491  -46.4548  -24.5182 C.3     1  UNL1        0.0954
      9 C         -62.5450  -44.8077  -22.0802 C.3     1  UNL1        0.0477
     10 C         -62.9240  -43.6418  -21.2196 C.ar    1  UNL1        0.0220
     11 C         -64.1268  -43.2973  -20.6486 C.ar    1  UNL1        0.0923
     12 N         -63.9037  -42.2585  -19.8044 N.ar    1  UNL1       -0.2534
     13 N         -62.6066  -41.9627  -19.7932 N.ar    1  UNL1       -0.1651
     14 C         -62.0121  -42.8056  -20.6548 C.ar    1  UNL1        0.1515
     15 C         -60.5951  -42.9313  -20.9545 C.2     1  UNL1        0.2650
     16 O         -59.7348  -42.2266  -20.3639 O.2     1  UNL1       -0.2684
     17 N         -60.2068  -43.9078  -21.9340 N.am    1  UNL1       -0.3023
     18 H         -59.1854  -44.0359  -22.1172 H       1  UNL1        0.1497
     19 C         -60.8068  -43.8634  -31.4934 C.ar    1  UNL1        0.2248
     20 N         -61.4636  -43.4794  -32.6243 N.ar    1  UNL1       -0.2101
     21 C         -62.8172  -43.5266  -32.7271 C.ar    1  UNL1        0.1021
     22 C         -63.5870  -43.9784  -31.6555 C.ar    1  UNL1        0.0209
     23 C         -62.9517  -44.3827  -30.4748 C.ar    1  UNL1        0.0060
     24 C         -63.7012  -44.8373  -29.3815 C.ar    1  UNL1        0.0003
     25 C         -63.0605  -45.2403  -28.2078 C.ar    1  UNL1        0.0045
     26 C         -61.6596  -45.2032  -28.1085 C.ar    1  UNL1        0.0537
     27 C         -60.9064  -44.7330  -29.1988 C.ar    1  UNL1        0.0092
     28 C         -61.5417  -44.3275  -30.3855 C.ar    1  UNL1        0.0534
     29 C         -58.5678  -44.8609  -31.8666 C.3     1  UNL1        0.2542
     30 O         -59.4092  -43.7983  -31.4349 O.3     1  UNL1       -0.4561
     31 C         -64.9165  -41.5997  -18.9554 C.3     1  UNL1        0.0867
     32 C         -64.3500  -40.2763  -18.4049 C.3     1  UNL1        0.0244
     33 C         -65.2987  -42.5053  -17.7647 C.3     1  UNL1        0.0244
     34 C         -66.1775  -41.3173  -19.7923 C.3     1  UNL1        0.0244
@<TRIPOS>BOND
     1    29    30    1
     2    30    19    1
     3    19    20   ar
     4    20    21   ar
     5    21    22   ar
     6    22    23   ar
     7    23    24   ar
     8    24    25   ar
     9    25    26   ar
    10    26     1    1
    11     1     2    2
    12     1     3   am
    13     3     4    1
    14     4     5    1
    15     5     6    1
    16     6     7    1
    17     7     8    1
    18     6     9    1
    19     9    10    1
    20    10    11   ar
    21    11    12   ar
    22    12    31    1
    23    31    32    1
    24    31    33    1
    25    31    34    1
    26    12    13   ar
    27    13    14   ar
    28    14    15    1
    29    15    16    2
    30    15    17   am
    31    26    27   ar
    32    27    28   ar
    33    28    19   ar
    34    28    23   ar
    35     8     3    1
    36    14    10   ar
    37    17     6    1
    38    17    18    1
@<TRIPOS>MOLECULE
*****
 34 38 0 0 0
SMALL
GASTEIGER

@<TRIPOS>ATOM
      1 C         -61.4318  -41.9544  -21.0294 C.2     1  UNL1        0.2490
      2 O         -60.7957  -42.7447  -20.2794 O.2     1  UNL1       -0.2699
      3 N         -61.2354  -42.0237  -22.4544 N.am    1  UNL1       -0.2760
      4 C         -62.3803  -42.0609  -23.3698 C.3     1  UNL1        0.0954
      5 C         -62.4354  -43.4191  -24.0852 C.3     1  UNL1        0.0399
      6 C         -61.0798  -43.8389  -24.7240 C.3     1  UNL1        0.0645
      7 C         -59.9479  -43.7148  -23.6667 C.3     1  UNL1        0.0399
      8 C         -59.9151  -42.3321  -23.0079 C.3     1  UNL1        0.0954
      9 C         -60.7456  -42.9429  -25.9735 C.3     1  UNL1        0.0477
     10 C         -61.5788  -43.3382  -27.1538 C.ar    1  UNL1        0.0220
     11 C         -61.8712  -42.6636  -28.3162 C.ar    1  UNL1        0.0923
     12 N         -62.5058  -43.5266  -29.1492 N.ar    1  UNL1       -0.2534
     13 N         -62.5891  -44.7232  -28.5735 N.ar    1  UNL1       -0.1651
     14 C         -62.0243  -44.6066  -27.3596 C.ar    1  UNL1        0.1515
     15 C         -61.8089  -45.6458  -26.3661 C.2     1  UNL1        0.2650
     16 O         -62.1311  -46.8427  -26.5883 O.2     1  UNL1       -0.2684
     17 N         -61.1913  -45.2630  -25.1268 N.am    1  UNL1       -0.3023
     18 H         -60.9898  -46.0152  -24.4291 H       1  UNL1        0.1497
     19 C         -62.8846  -37.2696  -20.2558 C.ar    1  UNL1        0.2248
     20 N         -63.7587  -36.3975  -19.6783 N.ar    1  UNL1       -0.2101
     21 C         -64.7953  -36.8156  -18.9065 C.ar    1  UNL1        0.1021
     22 C         -64.9968  -38.1768  -18.6794 C.ar    1  UNL1        0.0209
     23 C         -64.1216  -39.1066  -19.2542 C.ar    1  UNL1        0.0060
     24 C         -64.2986  -40.4800  -19.0392 C.ar    1  UNL1        0.0003
     25 C         -63.4226  -41.4015  -19.6171 C.ar    1  UNL1        0.0045
     26 C         -62.3590  -40.9675  -20.4260 C.ar    1  UNL1        0.0537
     27 C         -62.1704  -39.5892  -20.6306 C.ar    1  UNL1        0.0092
     28 C         -63.0481  -38.6538  -20.0554 C.ar    1  UNL1        0.0534
     29 C         -61.3316  -35.4633  -20.9433 C.3     1  UNL1        0.2542
     30 O         -61.8313  -36.7912  -21.0449 O.3     1  UNL1       -0.4561
     31 C         -62.9647  -43.2273  -30.5204 C.3     1  UNL1        0.0867
     32 C         -64.0068  -44.2749  -30.9586 C.3     1  UNL1        0.0244
     33 C         -61.7801  -43.2668  -31.5100 C.3     1  UNL1        0.0244
     34 C         -63.5944  -41.8228  -30.5519 C.3     1  UNL1        0.0244
@<TRIPOS>BOND
     1    29    30    1
     2    30    19    1
     3    19    20   ar
     4    20    21   ar
     5    21    22   ar
     6    22    23   ar
     7    23    24   ar
     8    24    25   ar
     9    25    26   ar
    10    26     1    1
    11     1     2    2
    12     1     3   am
    13     3     4    1
    14     4     5    1
    15     5     6    1
    16     6     7    1
    17     7     8    1
    18     6     9    1
    19     9    10    1
    20    10    11   ar
    21    11    12   ar
    22    12    31    1
    23    31    32    1
    24    31    33    1
    25    31    34    1
    26    12    13   ar
    27    13    14   ar
    28    14    15    1
    29    15    16    2
    30    15    17   am
    31    26    27   ar
    32    27    28   ar
    33    28    19   ar
    34    28    23   ar
    35     8     3    1
    36    14    10   ar
    37    17     6    1
    38    17    18    1
@<TRIPOS>MOLECULE
*****
 34 38 0 0 0
SMALL
GASTEIGER

@<TRIPOS>ATOM
      1 C         -61.1130  -42.9837  -21.1799 C.2     1  UNL1        0.2490
      2 O         -60.2299  -43.7472  -20.7018 O.2     1  UNL1       -0.2699
      3 N         -61.1507  -42.7525  -22.6008 N.am    1  UNL1       -0.2760
      4 C         -62.4086  -42.8600  -23.3466 C.3     1  UNL1        0.0954
      5 C         -62.3422  -44.0483  -24.3178 C.3     1  UNL1        0.0399
      6 C         -61.0611  -44.0561  -25.2014 C.3     1  UNL1        0.0645
      7 C         -59.8073  -43.8933  -24.2982 C.3     1  UNL1        0.0399
      8 C         -59.9092  -42.6758  -23.3739 C.3     1  UNL1        0.0954
      9 C         -61.1065  -42.8999  -26.2676 C.3     1  UNL1        0.0477
     10 C         -62.0434  -43.2395  -27.3859 C.ar    1  UNL1        0.0220
     11 C         -62.6425  -42.4415  -28.3325 C.ar    1  UNL1        0.0923
     12 N         -63.2454  -43.2525  -29.2382 N.ar    1  UNL1       -0.2534
     13 N         -63.0172  -44.5242  -28.9207 N.ar    1  UNL1       -0.1651
     14 C         -62.2855  -44.5142  -27.7935 C.ar    1  UNL1        0.1515
     15 C         -61.7250  -45.6481  -27.0769 C.2     1  UNL1        0.2650
     16 O         -61.8630  -46.8256  -27.5015 O.2     1  UNL1       -0.2684
     17 N         -60.9850  -45.3758  -25.8761 N.am    1  UNL1       -0.3023
     18 H         -60.5388  -46.1834  -25.3841 H       1  UNL1        0.1497
     19 C         -65.4130  -42.9973  -18.6966 C.ar    1  UNL1        0.2248
     20 N         -66.2799  -42.3626  -17.8578 N.ar    1  UNL1       -0.2101
     21 C         -66.0260  -41.1274  -17.3531 C.ar    1  UNL1        0.1021
     22 C         -64.8469  -40.4616  -17.6871 C.ar    1  UNL1        0.0209
     23 C         -63.9289  -41.0783  -18.5461 C.ar    1  UNL1        0.0060
     24 C         -62.7382  -40.4303  -18.9012 C.ar    1  UNL1        0.0003
     25 C         -61.8266  -41.0523  -19.7572 C.ar    1  UNL1        0.0045
     26 C         -62.0851  -42.3355  -20.2673 C.ar    1  UNL1        0.0537
     27 C         -63.2863  -42.9813  -19.9246 C.ar    1  UNL1        0.0092
     28 C         -64.2091  -42.3647  -19.0617 C.ar    1  UNL1        0.0534
     29 C         -65.2874  -45.4694  -18.5553 C.3     1  UNL1        0.2542
     30 O         -65.7176  -44.2717  -19.1907 O.3     1  UNL1       -0.4561
     31 C         -63.9747  -42.8122  -30.4444 C.3     1  UNL1        0.0867
     32 C         -62.9809  -42.6031  -31.6036 C.3     1  UNL1        0.0244
     33 C         -64.7090  -41.4801  -30.1786 C.3     1  UNL1        0.0244
     34 C         -65.0097  -43.8834  -30.8336 C.3     1  UNL1        0.0244
@<TRIPOS>BOND
     1    29    30    1
     2    30    19    1
     3    19    20   ar
     4    20    21   ar
     5    21    22   ar
     6    22    23   ar
     7    23    24   ar
     8    24    25   ar
     9    25    26   ar
    10    26     1    1
    11     1     2    2
    12     1     3   am
    13     3     4    1
    14     4     5    1
    15     5     6    1
    16     6     7    1
    17     7     8    1
    18     6     9    1
    19     9    10    1
    20    10    11   ar
    21    11    12   ar
    22    12    31    1
    23    31    32    1
    24    31    33    1
    25    31    34    1
    26    12    13   ar
    27    13    14   ar
    28    14    15    1
    29    15    16    2
    30    15    17   am
    31    26    27   ar
    32    27    28   ar
    33    28    19   ar
    34    28    23   ar
    35     8     3    1
    36    14    10   ar
    37    17     6    1
    38    17    18    1
@<TRIPOS>MOLECULE
*****
 34 38 0 0 0
SMALL
GASTEIGER

@<TRIPOS>ATOM
      1 C         -61.2809  -45.0267  -22.0029 C.2     1  UNL1        0.2490
      2 O         -61.2963  -46.1586  -21.4460 O.2     1  UNL1       -0.2699
      3 N         -60.9311  -44.9316  -23.3966 N.am    1  UNL1       -0.2760
      4 C         -61.7558  -44.1542  -24.3270 C.3     1  UNL1        0.0954
      5 C         -62.4183  -45.0910  -25.3484 C.3     1  UNL1        0.0399
      6 C         -61.4199  -46.0713  -26.0296 C.3     1  UNL1        0.0645
      7 C         -60.5817  -46.7971  -24.9410 C.3     1  UNL1        0.0399
      8 C         -59.9155  -45.8177  -23.9694 C.3     1  UNL1        0.0954
      9 C         -60.4650  -45.3047  -27.0177 C.3     1  UNL1        0.0477
     10 C         -61.1821  -44.9427  -28.2820 C.ar    1  UNL1        0.0220
     11 C         -60.8791  -44.0209  -29.2568 C.ar    1  UNL1        0.0923
     12 N         -61.7374  -44.2118  -30.2904 N.ar    1  UNL1       -0.2534
     13 N         -62.5397  -45.2383  -30.0209 N.ar    1  UNL1       -0.1651
     14 C         -62.2001  -45.6819  -28.7986 C.ar    1  UNL1        0.1515
     15 C         -62.7362  -46.8246  -28.0773 C.2     1  UNL1        0.2650
     16 O         -63.6110  -47.5718  -28.5891 O.2     1  UNL1       -0.2684
     17 N         -62.2138  -47.0870  -26.7650 N.am    1  UNL1       -0.3023
     18 H         -62.5607  -47.9357  -26.2623 H       1  UNL1        0.1497
     19 C         -64.6039  -41.9247  -20.0048 C.ar    1  UNL1        0.2248
     20 N         -64.8644  -40.8058  -19.2713 N.ar    1  UNL1       -0.2101
     21 C         -63.8749  -40.0333  -18.7525 C.ar    1  UNL1        0.1021
     22 C         -62.5381  -40.3715  -18.9612 C.ar    1  UNL1        0.0209
     23 C         -62.2266  -41.5136  -19.7093 C.ar    1  UNL1        0.0060
     24 C         -60.8919  -41.8744  -19.9375 C.ar    1  UNL1        0.0003
     25 C         -60.5890  -43.0158  -20.6833 C.ar    1  UNL1        0.0045
     26 C         -61.6142  -43.8207  -21.2076 C.ar    1  UNL1        0.0537
     27 C         -62.9541  -43.4521  -20.9929 C.ar    1  UNL1        0.0092
     28 C         -63.2694  -42.3066  -20.2414 C.ar    1  UNL1        0.0534
     29 C         -66.6575  -42.1524  -21.3753 C.3     1  UNL1        0.2542
     30 O         -65.6578  -42.6906  -20.5183 O.3     1  UNL1       -0.4561
     31 C         -61.7411  -43.4622  -31.5626 C.3     1  UNL1        0.0867
     32 C         -60.5018  -43.8464  -32.3943 C.3     1  UNL1        0.0244
     33 C         -61.7041  -41.9416  -31.2968 C.3     1  UNL1        0.0244
     34 C         -63.0206  -43.8000  -32.3495 C.3     1  UNL1        0.0244
@<TRIPOS>BOND
     1    29    30    1
     2    30    19    1
     3    19    20   ar
     4    20    21   ar
     5    21    22   ar
     6    22    23   ar
     7    23    24   ar
     8    24    25   ar
     9    25    26   ar
    10    26     1    1
    11     1     2    2
    12     1     3   am
    13     3     4    1
    14     4     5    1
    15     5     6    1
    16     6     7    1
    17     7     8    1
    18     6     9    1
    19     9    10    1
    20    10    11   ar
    21    11    12   ar
    22    12    31    1
    23    31    32    1
    24    31    33    1
    25    31    34    1
    26    12    13   ar
    27    13    14   ar
    28    14    15    1
    29    15    16    2
    30    15    17   am
    31    26    27   ar
    32    27    28   ar
    33    28    19   ar
    34    28    23   ar
    35     8     3    1
    36    14    10   ar
    37    17     6    1
    38    17    18    1
@<TRIPOS>MOLECULE
*****
 34 38 0 0 0
SMALL
GASTEIGER

@<TRIPOS>ATOM
      1 C         -61.0010  -42.3037  -21.3403 C.2     1  UNL1        0.2490
      2 O         -60.2192  -42.9422  -20.5836 O.2     1  UNL1       -0.2699
      3 N         -61.0851  -42.6635  -22.7321 N.am    1  UNL1       -0.2760
      4 C         -62.3857  -42.8559  -23.3815 C.3     1  UNL1        0.0954
      5 C         -62.5585  -44.3286  -23.7825 C.3     1  UNL1        0.0399
      6 C         -61.3472  -44.9021  -24.5734 C.3     1  UNL1        0.0645
      7 C         -60.0330  -44.5958  -23.8030 C.3     1  UNL1        0.0399
      8 C         -59.8934  -43.1100  -23.4569 C.3     1  UNL1        0.0954
      9 C         -61.2764  -44.2849  -26.0190 C.3     1  UNL1        0.0477
     10 C         -62.3175  -44.8891  -26.9105 C.ar    1  UNL1        0.0220
     11 C         -62.8409  -44.4554  -28.1062 C.ar    1  UNL1        0.0923
     12 N         -63.6125  -45.4525  -28.6081 N.ar    1  UNL1       -0.2534
     13 N         -63.5640  -46.5061  -27.7971 N.ar    1  UNL1       -0.1651
     14 C         -62.7753  -46.1614  -26.7649 C.ar    1  UNL1        0.1515
     15 C         -62.3548  -46.9841  -25.6425 C.2     1  UNL1        0.2650
     16 O         -62.6960  -48.1928  -25.5511 O.2     1  UNL1       -0.2684
     17 N         -61.5134  -46.3750  -24.6501 N.am    1  UNL1       -0.3023
     18 H         -61.1686  -46.9760  -23.8671 H       1  UNL1        0.1497
     19 C         -64.3176  -40.5567  -18.0837 C.ar    1  UNL1        0.2248
     20 N         -65.0436  -39.5074  -17.6043 N.ar    1  UNL1       -0.2101
     21 C         -64.9597  -38.2629  -18.1421 C.ar    1  UNL1        0.1021
     22 C         -64.1110  -38.0208  -19.2219 C.ar    1  UNL1        0.0209
     23 C         -63.3472  -39.0715  -19.7451 C.ar    1  UNL1        0.0060
     24 C         -62.4893  -38.8569  -20.8321 C.ar    1  UNL1        0.0003
     25 C         -61.7294  -39.9093  -21.3475 C.ar    1  UNL1        0.0045
     26 C         -61.8078  -41.1926  -20.7811 C.ar    1  UNL1        0.0537
     27 C         -62.6794  -41.4138  -19.7001 C.ar    1  UNL1        0.0092
     28 C         -63.4465  -40.3605  -19.1725 C.ar    1  UNL1        0.0534
     29 C         -65.5157  -42.7055  -17.7754 C.3     1  UNL1        0.2542
     30 O         -64.4366  -41.8219  -17.4953 O.3     1  UNL1       -0.4561
     31 C         -64.3343  -45.4243  -29.8960 C.3     1  UNL1        0.0867
     32 C         -65.6933  -44.7207  -29.7134 C.3     1  UNL1        0.0244
     33 C         -64.5870  -46.8589  -30.4081 C.3     1  UNL1        0.0244
     34 C         -63.4910  -44.6646  -30.9362 C.3     1  UNL1        0.0244
@<TRIPOS>BOND
     1    29    30    1
     2    30    19    1
     3    19    20   ar
     4    20    21   ar
     5    21    22   ar
     6    22    23   ar
     7    23    24   ar
     8    24    25   ar
     9    25    26   ar
    10    26     1    1
    11     1     2    2
    12     1     3   am
    13     3     4    1
    14     4     5    1
    15     5     6    1
    16     6     7    1
    17     7     8    1
    18     6     9    1
    19     9    10    1
    20    10    11   ar
    21    11    12   ar
    22    12    31    1
    23    31    32    1
    24    31    33    1
    25    31    34    1
    26    12    13   ar
    27    13    14   ar
    28    14    15    1
    29    15    16    2
    30    15    17   am
    31    26    27   ar
    32    27    28   ar
    33    28    19   ar
    34    28    23   ar
    35     8     3    1
    36    14    10   ar
    37    17     6    1
    38    17    18    1
