@<TRIPOS>MOLECULE
*****
 50 55 0 0 0
SMALL
GASTEIGER

@<TRIPOS>ATOM
      1 C          59.7581   86.0975   10.9465 C.2     1  UNL1        0.2483
      2 O          59.2170   86.6626   11.9364 O.2     1  UNL1       -0.2701
      3 N          60.2811   84.7680   11.0922 N.am    1  UNL1       -0.2945
      4 H          60.3983   84.1895   10.2308 H       1  UNL1        0.1501
      5 C          59.8624   88.1902    7.1800 C.ar    1  UNL1        0.0502
      6 C          59.1499   86.9901    7.3175 C.ar    1  UNL1        0.0148
      7 C          59.1305   86.3155    8.5406 C.ar    1  UNL1        0.0080
      8 C          59.8327   86.8188    9.6503 C.ar    1  UNL1        0.0808
      9 C          60.5495   88.0269    9.5080 C.ar    1  UNL1        0.1457
     10 F          61.2007   88.5921   10.5548 F       1  UNL1       -0.2040
     11 C          60.5611   88.6997    8.2828 C.ar    1  UNL1        0.0443
     12 N          60.1038   90.6801    3.8105 N.pl3   1  UNL1       -0.3041
     13 C          59.0277   90.8951    4.7851 C.3     1  UNL1        0.1122
     14 C          58.6606   89.5711    5.4519 C.3     1  UNL1        0.1122
     15 N          59.8757   88.8976    5.9260 N.pl3   1  UNL1       -0.3040
     16 C          60.9632   88.6854    4.9630 C.3     1  UNL1        0.1122
     17 C          61.3218   90.0030    4.2714 C.3     1  UNL1        0.1122
     18 C          61.2226   92.7784    0.8963 C.ar    1  UNL1       -0.0099
     19 C          61.2129   92.0889    2.1255 C.ar    1  UNL1        0.0111
     20 C          60.0849   91.3761    2.5501 C.ar    1  UNL1        0.0485
     21 C          58.9430   91.3553    1.7414 C.ar    1  UNL1        0.0267
     22 C          58.9248   92.0323    0.5207 C.ar    1  UNL1        0.0691
     23 CL         57.4578   91.9621   -0.4498 Cl      1  UNL1       -0.0813
     24 C          60.0576   92.7470    0.0873 C.ar    1  UNL1        0.0643
     25 CL         59.9843   93.5903   -1.4643 Cl      1  UNL1       -0.0817
     26 C          63.3653   93.8429    1.6945 C.3     1  UNL1        0.0047
     27 C          62.4772   93.5402    0.4811 C.3     1  UNL1        0.0233
     28 C          63.2584   92.7768   -0.5965 C.3     1  UNL1        0.0047
     29 C          60.5429   84.1722   12.4114 C.3     1  UNL1        0.1535
     30 C          60.3720   82.6706   12.3841 C.2     1  UNL1        0.2443
     31 O          61.3708   81.9177   12.5496 O.2     1  UNL1       -0.2730
     32 N          59.0543   82.1093   12.2722 N.am    1  UNL1       -0.2825
     33 H          58.2401   82.7420   12.4438 H       1  UNL1        0.1549
     34 C          58.7893   80.7121   12.0606 C.ar    1  UNL1        0.0535
     35 C          58.2072   80.2456   10.8695 C.ar    1  UNL1        0.0353
     36 C          57.9462   78.8813   10.7188 C.ar    1  UNL1        0.1002
     37 N          58.2408   78.0146   11.7236 N.ar    1  UNL1       -0.2422
     38 C          58.7868   78.4402   12.8932 C.ar    1  UNL1        0.1002
     39 C          59.0626   79.7961   13.0855 C.ar    1  UNL1        0.0353
     40 C          61.9413   84.5604   12.9420 C.3     1  UNL1        0.0569
     41 C          61.8897   85.4957   14.1202 C.ar    1  UNL1       -0.0017
     42 C          61.3650   85.2155   15.3790 C.ar    1  UNL1        0.0681
     43 N          61.5481   86.2644   16.2124 N.ar    1  UNL1       -0.3523
     44 C          62.1801   87.2063   15.4916 C.ar    1  UNL1        0.0563
     45 C          62.6001   88.4621   15.9283 C.ar    1  UNL1        0.0170
     46 C          63.2599   89.2933   15.0050 C.ar    1  UNL1        0.0015
     47 C          63.4753   88.8592   13.6788 C.ar    1  UNL1        0.0001
     48 C          63.0372   87.5886   13.2648 C.ar    1  UNL1        0.0012
     49 C          62.3996   86.7786   14.2068 C.ar    1  UNL1        0.0131
     50 H          61.2623   86.3229   17.2151 H       1  UNL1        0.1660
@<TRIPOS>BOND
     1    26    27    1
     2    27    28    1
     3    27    18    1
     4    18    19   ar
     5    19    20   ar
     6    20    12    1
     7    12    13    1
     8    13    14    1
     9    14    15    1
    10    15     5    1
    11     5     6   ar
    12     6     7   ar
    13     7     8   ar
    14     8     1    1
    15     1     2    2
    16     1     3   am
    17     3    29    1
    18    29    40    1
    19    40    41    1
    20    41    42   ar
    21    42    43   ar
    22    43    44   ar
    23    44    45   ar
    24    45    46   ar
    25    46    47   ar
    26    47    48   ar
    27    48    49   ar
    28    29    30    1
    29    30    31    2
    30    30    32   am
    31    32    34    1
    32    34    35   ar
    33    35    36   ar
    34    36    37   ar
    35    37    38   ar
    36    38    39   ar
    37     8     9   ar
    38     9    10    1
    39     9    11   ar
    40    15    16    1
    41    16    17    1
    42    20    21   ar
    43    21    22   ar
    44    22    23    1
    45    22    24   ar
    46    24    25    1
    47    24    18   ar
    48    17    12    1
    49    11     5   ar
    50    49    41   ar
    51    39    34   ar
    52    49    44   ar
    53     3     4    1
    54    43    50    1
    55    32    33    1
@<TRIPOS>MOLECULE
*****
 50 55 0 0 0
SMALL
GASTEIGER

@<TRIPOS>ATOM
      1 C          59.5687   86.0677   10.6197 C.2     1  UNL1        0.2483
      2 O          58.9348   86.5903   11.5773 O.2     1  UNL1       -0.2701
      3 N          60.1477   84.7640   10.7850 N.am    1  UNL1       -0.2945
      4 H          60.3513   84.2049    9.9269 H       1  UNL1        0.1501
      5 C          59.8162   88.2277    6.8981 C.ar    1  UNL1        0.0502
      6 C          59.0627   87.0492    6.9980 C.ar    1  UNL1        0.0148
      7 C          58.9969   86.3522    8.2068 C.ar    1  UNL1        0.0080
      8 C          59.6926   86.8109    9.3397 C.ar    1  UNL1        0.0808
      9 C          60.4508   87.9973    9.2354 C.ar    1  UNL1        0.1457
     10 F          61.0989   88.5207   10.3056 F       1  UNL1       -0.2040
     11 C          60.5089   88.6928    8.0242 C.ar    1  UNL1        0.0443
     12 N          60.1943   90.7768    3.5859 N.pl3   1  UNL1       -0.3041
     13 C          59.0914   90.9880    4.5308 C.3     1  UNL1        0.1122
     14 C          58.6866   89.6568    5.1606 C.3     1  UNL1        0.1122
     15 N          59.8777   88.9582    5.6589 N.pl3   1  UNL1       -0.3040
     16 C          60.9917   88.7494    4.7260 C.3     1  UNL1        0.1122
     17 C          61.3886   90.0748    4.0710 C.3     1  UNL1        0.1122
     18 C          61.4644   92.8211    0.6954 C.ar    1  UNL1       -0.0099
     19 C          61.4069   92.1111    1.9116 C.ar    1  UNL1        0.0111
     20 C          60.2237   91.4964    2.3391 C.ar    1  UNL1        0.0485
     21 C          59.0745   91.5964    1.5467 C.ar    1  UNL1        0.0267
     22 C          59.1032   92.2963    0.3391 C.ar    1  UNL1        0.0691
     23 CL         57.6238   92.3802   -0.6113 Cl      1  UNL1       -0.0813
     24 C          60.2913   92.9127   -0.0971 C.ar    1  UNL1        0.0643
     25 CL         60.2763   93.7897   -1.6315 Cl      1  UNL1       -0.0817
     26 C          63.6380   93.8163    1.4995 C.3     1  UNL1        0.0047
     27 C          62.7784   93.4728    0.2765 C.3     1  UNL1        0.0233
     28 C          63.5501   92.5829   -0.7068 C.3     1  UNL1        0.0047
     29 C          60.3511   84.1626   12.1119 C.3     1  UNL1        0.1535
     30 C          60.8471   85.1824   13.1114 C.2     1  UNL1        0.2443
     31 O          60.2094   85.3802   14.1819 O.2     1  UNL1       -0.2730
     32 N          62.0998   85.8475   12.8828 N.am    1  UNL1       -0.2825
     33 H          62.7387   85.4458   12.1595 H       1  UNL1        0.1549
     34 C          62.5800   86.9526   13.6672 C.ar    1  UNL1        0.0535
     35 C          62.7877   88.2219   13.1008 C.ar    1  UNL1        0.0353
     36 C          63.2784   89.2596   13.8974 C.ar    1  UNL1        0.1002
     37 N          63.5659   89.0376   15.2072 N.ar    1  UNL1       -0.2422
     38 C          63.3924   87.8157   15.7767 C.ar    1  UNL1        0.1002
     39 C          62.9051   86.7506   15.0156 C.ar    1  UNL1        0.0353
     40 C          59.0695   83.4661   12.6219 C.3     1  UNL1        0.0569
     41 C          58.5689   82.3924   11.6933 C.ar    1  UNL1       -0.0017
     42 C          58.0727   82.5751   10.4053 C.ar    1  UNL1        0.0681
     43 N          57.7785   81.3835    9.8379 N.ar    1  UNL1       -0.3523
     44 C          58.0804   80.4497   10.7560 C.ar    1  UNL1        0.0563
     45 C          57.9649   79.0666   10.6218 C.ar    1  UNL1        0.0170
     46 C          58.3518   78.2651   11.7111 C.ar    1  UNL1        0.0015
     47 C          58.8321   78.8571   12.8995 C.ar    1  UNL1        0.0001
     48 C          58.9342   80.2555   13.0083 C.ar    1  UNL1        0.0012
     49 C          58.5584   81.0256   11.9057 C.ar    1  UNL1        0.0131
     50 H          57.4014   81.2253    8.8771 H       1  UNL1        0.1660
@<TRIPOS>BOND
     1    26    27    1
     2    27    28    1
     3    27    18    1
     4    18    19   ar
     5    19    20   ar
     6    20    12    1
     7    12    13    1
     8    13    14    1
     9    14    15    1
    10    15     5    1
    11     5     6   ar
    12     6     7   ar
    13     7     8   ar
    14     8     1    1
    15     1     2    2
    16     1     3   am
    17     3    29    1
    18    29    40    1
    19    40    41    1
    20    41    42   ar
    21    42    43   ar
    22    43    44   ar
    23    44    45   ar
    24    45    46   ar
    25    46    47   ar
    26    47    48   ar
    27    48    49   ar
    28    29    30    1
    29    30    31    2
    30    30    32   am
    31    32    34    1
    32    34    35   ar
    33    35    36   ar
    34    36    37   ar
    35    37    38   ar
    36    38    39   ar
    37     8     9   ar
    38     9    10    1
    39     9    11   ar
    40    15    16    1
    41    16    17    1
    42    20    21   ar
    43    21    22   ar
    44    22    23    1
    45    22    24   ar
    46    24    25    1
    47    24    18   ar
    48    17    12    1
    49    11     5   ar
    50    49    41   ar
    51    39    34   ar
    52    49    44   ar
    53     3     4    1
    54    43    50    1
    55    32    33    1
