@<TRIPOS>MOLECULE
*****
 50 55 0 0 0
SMALL
GASTEIGER

@<TRIPOS>ATOM
      1 C         -28.9070   48.3663   -1.6332 C.2     1  UNL1        0.2483
      2 O         -27.6981   48.3341   -1.2733 O.2     1  UNL1       -0.2701
      3 N         -29.9390   48.1413   -0.6602 N.am    1  UNL1       -0.2945
      4 H         -30.8960   48.5044   -0.8668 H       1  UNL1        0.1501
      5 C         -29.7771   49.1035   -5.7897 C.ar    1  UNL1        0.0502
      6 C         -28.4675   49.2066   -5.2989 C.ar    1  UNL1        0.0148
      7 C         -28.1984   48.9744   -3.9480 C.ar    1  UNL1        0.0080
      8 C         -29.2340   48.6459   -3.0549 C.ar    1  UNL1        0.0808
      9 C         -30.5513   48.5437   -3.5523 C.ar    1  UNL1        0.1457
     10 F         -31.5840   48.1767   -2.7536 F       1  UNL1       -0.2040
     11 C         -30.8135   48.7725   -4.9062 C.ar    1  UNL1        0.0443
     12 N         -30.3586   49.2700   -9.9425 N.pl3   1  UNL1       -0.3041
     13 C         -29.0198   49.5197   -9.3956 C.3     1  UNL1        0.1122
     14 C         -29.1357   50.1263   -7.9988 C.3     1  UNL1        0.1122
     15 N         -30.0596   49.3284   -7.1836 N.pl3   1  UNL1       -0.3040
     16 C         -31.3985   49.0635   -7.7240 C.3     1  UNL1        0.1122
     17 C         -31.2932   48.4778   -9.1343 C.3     1  UNL1        0.1122
     18 C         -30.8384   48.7048  -13.6300 C.ar    1  UNL1       -0.0099
     19 C         -30.5773   48.4817  -12.2631 C.ar    1  UNL1        0.0111
     20 C         -30.6290   49.5274  -11.3332 C.ar    1  UNL1        0.0485
     21 C         -30.9380   50.8198  -11.7719 C.ar    1  UNL1        0.0267
     22 C         -31.1977   51.0689  -13.1208 C.ar    1  UNL1        0.0691
     23 CL        -31.5840   52.7167  -13.6050 Cl      1  UNL1       -0.0813
     24 C         -31.1510   50.0204  -14.0590 C.ar    1  UNL1        0.0643
     25 CL        -31.4846   50.3868  -15.7556 Cl      1  UNL1       -0.0817
     26 C         -29.6971   47.7661  -15.6740 C.3     1  UNL1        0.0047
     27 C         -30.7681   47.5308  -14.6015 C.3     1  UNL1        0.0233
     28 C         -30.5236   46.2105  -13.8591 C.3     1  UNL1        0.0047
     29 C         -29.6597   47.5244    0.6455 C.3     1  UNL1        0.1535
     30 C         -30.3330   48.2786    1.7692 C.2     1  UNL1        0.2443
     31 O         -31.5305   48.0233    2.0733 O.2     1  UNL1       -0.2730
     32 N         -29.5712   49.2112    2.5528 N.am    1  UNL1       -0.2825
     33 H         -28.5293   49.1733    2.4766 H       1  UNL1        0.1549
     34 C         -30.1440   50.1059    3.5216 C.ar    1  UNL1        0.0535
     35 C         -30.0512   49.8542    4.9012 C.ar    1  UNL1        0.0353
     36 C         -30.6443   50.7400    5.8043 C.ar    1  UNL1        0.1002
     37 N         -31.3183   51.8293    5.3496 N.ar    1  UNL1       -0.2422
     38 C         -31.4399   52.0874    4.0207 C.ar    1  UNL1        0.1002
     39 C         -30.8629   51.2266    3.0840 C.ar    1  UNL1        0.0353
     40 C         -30.0580   46.0315    0.6648 C.3     1  UNL1        0.0569
     41 C         -30.3326   45.4735   -0.7060 C.ar    1  UNL1       -0.0017
     42 C         -31.5823   45.1951   -1.2530 C.ar    1  UNL1        0.0681
     43 N         -31.4558   44.7688   -2.5299 N.ar    1  UNL1       -0.3523
     44 C         -30.1382   44.7715   -2.7943 C.ar    1  UNL1        0.0563
     45 C         -29.5180   44.4268   -3.9946 C.ar    1  UNL1        0.0170
     46 C         -28.1155   44.5134   -4.0593 C.ar    1  UNL1        0.0015
     47 C         -27.3720   44.9298   -2.9335 C.ar    1  UNL1        0.0001
     48 C         -28.0240   45.2676   -1.7341 C.ar    1  UNL1        0.0012
     49 C         -29.4178   45.1878   -1.7035 C.ar    1  UNL1        0.0131
     50 H         -32.2291   44.5010   -3.1786 H       1  UNL1        0.1660
@<TRIPOS>BOND
     1    26    27    1
     2    27    28    1
     3    27    18    1
     4    18    19   ar
     5    19    20   ar
     6    20    12    1
     7    12    13    1
     8    13    14    1
     9    14    15    1
    10    15     5    1
    11     5     6   ar
    12     6     7   ar
    13     7     8   ar
    14     8     1    1
    15     1     2    2
    16     1     3   am
    17     3    29    1
    18    29    40    1
    19    40    41    1
    20    41    42   ar
    21    42    43   ar
    22    43    44   ar
    23    44    45   ar
    24    45    46   ar
    25    46    47   ar
    26    47    48   ar
    27    48    49   ar
    28    29    30    1
    29    30    31    2
    30    30    32   am
    31    32    34    1
    32    34    35   ar
    33    35    36   ar
    34    36    37   ar
    35    37    38   ar
    36    38    39   ar
    37     8     9   ar
    38     9    10    1
    39     9    11   ar
    40    15    16    1
    41    16    17    1
    42    20    21   ar
    43    21    22   ar
    44    22    23    1
    45    22    24   ar
    46    24    25    1
    47    24    18   ar
    48    17    12    1
    49    11     5   ar
    50    49    41   ar
    51    39    34   ar
    52    49    44   ar
    53     3     4    1
    54    43    50    1
    55    32    33    1
@<TRIPOS>MOLECULE
*****
 50 55 0 0 0
SMALL
GASTEIGER

@<TRIPOS>ATOM
      1 C         -22.9743   53.2492  -10.6996 C.2     1  UNL1        0.2483
      2 O         -22.8893   53.1977  -11.9574 O.2     1  UNL1       -0.2701
      3 N         -22.1659   54.1898   -9.9758 N.am    1  UNL1       -0.2945
      4 H         -22.4782   54.4724   -9.0203 H       1  UNL1        0.1501
      5 C         -25.6301   50.5922   -8.5867 C.ar    1  UNL1        0.0502
      6 C         -24.3512   50.1705   -8.9784 C.ar    1  UNL1        0.0148
      7 C         -23.5022   51.0371   -9.6709 C.ar    1  UNL1        0.0080
      8 C         -23.9169   52.3406   -9.9980 C.ar    1  UNL1        0.0808
      9 C         -25.2052   52.7614   -9.6027 C.ar    1  UNL1        0.1457
     10 F         -25.6424   54.0232   -9.8396 F       1  UNL1       -0.2040
     11 C         -26.0484   51.8911   -8.9058 C.ar    1  UNL1        0.0443
     12 N         -27.7404   47.8959   -6.1601 N.pl3   1  UNL1       -0.3041
     13 C         -26.8182   47.3753   -7.1762 C.3     1  UNL1        0.1122
     14 C         -26.7424   48.3459   -8.3529 C.3     1  UNL1        0.1122
     15 N         -26.5053   49.7086   -7.8611 N.pl3   1  UNL1       -0.3040
     16 C         -27.4151   50.2371   -6.8375 C.3     1  UNL1        0.1122
     17 C         -27.5166   49.2592   -5.6643 C.3     1  UNL1        0.1122
     18 C         -29.4139   46.0166   -3.3646 C.ar    1  UNL1       -0.0099
     19 C         -28.5573   46.8848   -4.0710 C.ar    1  UNL1        0.0111
     20 C         -28.6276   47.0000   -5.4647 C.ar    1  UNL1        0.0485
     21 C         -29.5612   46.2320   -6.1696 C.ar    1  UNL1        0.0267
     22 C         -30.4195   45.3619   -5.4948 C.ar    1  UNL1        0.0691
     23 CL        -31.5730   44.4279   -6.4413 Cl      1  UNL1       -0.0813
     24 C         -30.3555   45.2453   -4.0933 C.ar    1  UNL1        0.0643
     25 CL        -31.4612   44.1280   -3.2852 Cl      1  UNL1       -0.0817
     26 C         -27.8417   45.6875   -1.4200 C.3     1  UNL1        0.0047
     27 C         -29.2953   45.9281   -1.8464 C.3     1  UNL1        0.0233
     28 C         -29.8671   47.1819   -1.1715 C.3     1  UNL1        0.0047
     29 C         -20.9930   54.8393  -10.5809 C.3     1  UNL1        0.1535
     30 C         -20.4425   55.9289   -9.6896 C.2     1  UNL1        0.2443
     31 O         -20.4407   57.1274  -10.0838 O.2     1  UNL1       -0.2730
     32 N         -20.0185   55.6062   -8.3554 N.am    1  UNL1       -0.2825
     33 H         -20.3132   54.6839   -7.9612 H       1  UNL1        0.1549
     34 C         -19.3215   56.5178   -7.4891 C.ar    1  UNL1        0.0535
     35 C         -19.7678   57.8363   -7.2960 C.ar    1  UNL1        0.0353
     36 C         -19.0440   58.6934   -6.4631 C.ar    1  UNL1        0.1002
     37 N         -17.9085   58.2577   -5.8560 N.ar    1  UNL1       -0.2422
     38 C         -17.4435   56.9938   -6.0395 C.ar    1  UNL1        0.1002
     39 C         -18.1362   56.1051   -6.8651 C.ar    1  UNL1        0.0353
     40 C         -19.8966   53.8110  -10.9392 C.3     1  UNL1        0.0569
     41 C         -19.3576   53.0774   -9.7405 C.ar    1  UNL1       -0.0017
     42 C         -20.0058   52.8893   -8.5228 C.ar    1  UNL1        0.0681
     43 N         -19.2533   52.1256   -7.6989 N.ar    1  UNL1       -0.3523
     44 C         -18.1341   51.8321   -8.3826 C.ar    1  UNL1        0.0563
     45 C         -17.0637   51.0492   -7.9522 C.ar    1  UNL1        0.0170
     46 C         -15.9892   50.8582   -8.8398 C.ar    1  UNL1        0.0015
     47 C         -16.0046   51.4538  -10.1199 C.ar    1  UNL1        0.0001
     48 C         -17.0961   52.2422  -10.5259 C.ar    1  UNL1        0.0012
     49 C         -18.1557   52.4014   -9.6306 C.ar    1  UNL1        0.0131
     50 H         -19.4999   51.8207   -6.7311 H       1  UNL1        0.1660
@<TRIPOS>BOND
     1    26    27    1
     2    27    28    1
     3    27    18    1
     4    18    19   ar
     5    19    20   ar
     6    20    12    1
     7    12    13    1
     8    13    14    1
     9    14    15    1
    10    15     5    1
    11     5     6   ar
    12     6     7   ar
    13     7     8   ar
    14     8     1    1
    15     1     2    2
    16     1     3   am
    17     3    29    1
    18    29    40    1
    19    40    41    1
    20    41    42   ar
    21    42    43   ar
    22    43    44   ar
    23    44    45   ar
    24    45    46   ar
    25    46    47   ar
    26    47    48   ar
    27    48    49   ar
    28    29    30    1
    29    30    31    2
    30    30    32   am
    31    32    34    1
    32    34    35   ar
    33    35    36   ar
    34    36    37   ar
    35    37    38   ar
    36    38    39   ar
    37     8     9   ar
    38     9    10    1
    39     9    11   ar
    40    15    16    1
    41    16    17    1
    42    20    21   ar
    43    21    22   ar
    44    22    23    1
    45    22    24   ar
    46    24    25    1
    47    24    18   ar
    48    17    12    1
    49    11     5   ar
    50    49    41   ar
    51    39    34   ar
    52    49    44   ar
    53     3     4    1
    54    43    50    1
    55    32    33    1
@<TRIPOS>MOLECULE
*****
 50 55 0 0 0
SMALL
GASTEIGER

@<TRIPOS>ATOM
      1 C         -20.7340   54.5977   -9.8784 C.2     1  UNL1        0.2483
      2 O         -19.8485   54.4616  -10.7668 O.2     1  UNL1       -0.2701
      3 N         -20.6195   55.6665   -8.9261 N.am    1  UNL1       -0.2945
      4 H         -21.4868   55.9864   -8.4405 H       1  UNL1        0.1501
      5 C         -24.0352   51.8341   -9.6737 C.ar    1  UNL1        0.0502
      6 C         -22.7419   51.4399   -9.3014 C.ar    1  UNL1        0.0148
      7 C         -21.6776   52.3412   -9.3804 C.ar    1  UNL1        0.0080
      8 C         -21.8799   53.6532   -9.8449 C.ar    1  UNL1        0.0808
      9 C         -23.1830   54.0465  -10.2195 C.ar    1  UNL1        0.1457
     10 F         -23.4528   55.3130  -10.6226 F       1  UNL1       -0.2040
     11 C         -24.2448   53.1413  -10.1336 C.ar    1  UNL1        0.0443
     12 N         -26.8868   48.7583   -9.5345 N.pl3   1  UNL1       -0.3041
     13 C         -26.4102   49.2355  -10.8380 C.3     1  UNL1        0.1122
     14 C         -26.0190   50.7084  -10.7390 C.3     1  UNL1        0.1122
     15 N         -25.1391   50.9142   -9.5822 N.pl3   1  UNL1       -0.3040
     16 C         -25.6004   50.4326   -8.2744 C.3     1  UNL1        0.1122
     17 C         -26.0180   48.9631   -8.3692 C.3     1  UNL1        0.1122
     18 C         -29.9641   46.8345  -10.5225 C.ar    1  UNL1       -0.0099
     19 C         -28.8581   47.7071  -10.5654 C.ar    1  UNL1        0.0111
     20 C         -28.0100   47.8602   -9.4619 C.ar    1  UNL1        0.0485
     21 C         -28.2711   47.1387   -8.2916 C.ar    1  UNL1        0.0267
     22 C         -29.3616   46.2699   -8.2212 C.ar    1  UNL1        0.0691
     23 CL        -29.6308   45.3896   -6.7208 Cl      1  UNL1       -0.0813
     24 C         -30.2150   46.1093   -9.3292 C.ar    1  UNL1        0.0643
     25 CL        -31.5839   45.0000   -9.1900 Cl      1  UNL1       -0.0817
     26 C         -31.5838   48.0233  -12.0473 C.3     1  UNL1        0.0047
     27 C         -30.8571   46.7051  -11.7524 C.3     1  UNL1        0.0233
     28 C         -30.0555   46.2330  -12.9726 C.3     1  UNL1        0.0047
     29 C         -19.3545   56.3844   -8.7067 C.3     1  UNL1        0.1535
     30 C         -19.5904   57.8549   -8.4484 C.2     1  UNL1        0.2443
     31 O         -20.0413   58.5936   -9.3664 O.2     1  UNL1       -0.2730
     32 N         -19.3964   58.3821   -7.1261 N.am    1  UNL1       -0.2825
     33 H         -19.3226   57.7006   -6.3369 H       1  UNL1        0.1549
     34 C         -19.4196   59.7837   -6.8064 C.ar    1  UNL1        0.0535
     35 C         -18.7971   60.7370   -7.6304 C.ar    1  UNL1        0.0353
     36 C         -18.8253   62.0855   -7.2662 C.ar    1  UNL1        0.1002
     37 N         -19.4386   62.4694   -6.1155 N.ar    1  UNL1       -0.2422
     38 C         -20.0324   61.5672   -5.2903 C.ar    1  UNL1        0.1002
     39 C         -20.0260   60.2090   -5.6165 C.ar    1  UNL1        0.0353
     40 C         -18.5310   55.7472   -7.5649 C.3     1  UNL1        0.0569
     41 C         -18.8910   54.3089   -7.3056 C.ar    1  UNL1       -0.0017
     42 C         -19.9054   53.8453   -6.4722 C.ar    1  UNL1        0.0681
     43 N         -19.9882   52.4970   -6.5322 N.ar    1  UNL1       -0.3523
     44 C         -19.0336   52.1036   -7.3925 C.ar    1  UNL1        0.0563
     45 C         -18.7452   50.7998   -7.7938 C.ar    1  UNL1        0.0170
     46 C         -17.7041   50.6116   -8.7209 C.ar    1  UNL1        0.0015
     47 C         -16.9776   51.7171   -9.2144 C.ar    1  UNL1        0.0001
     48 C         -17.2878   53.0211   -8.7889 C.ar    1  UNL1        0.0012
     49 C         -18.3364   53.1796   -7.8804 C.ar    1  UNL1        0.0131
     50 H         -20.6645   51.8892   -6.0187 H       1  UNL1        0.1660
@<TRIPOS>BOND
     1    26    27    1
     2    27    28    1
     3    27    18    1
     4    18    19   ar
     5    19    20   ar
     6    20    12    1
     7    12    13    1
     8    13    14    1
     9    14    15    1
    10    15     5    1
    11     5     6   ar
    12     6     7   ar
    13     7     8   ar
    14     8     1    1
    15     1     2    2
    16     1     3   am
    17     3    29    1
    18    29    40    1
    19    40    41    1
    20    41    42   ar
    21    42    43   ar
    22    43    44   ar
    23    44    45   ar
    24    45    46   ar
    25    46    47   ar
    26    47    48   ar
    27    48    49   ar
    28    29    30    1
    29    30    31    2
    30    30    32   am
    31    32    34    1
    32    34    35   ar
    33    35    36   ar
    34    36    37   ar
    35    37    38   ar
    36    38    39   ar
    37     8     9   ar
    38     9    10    1
    39     9    11   ar
    40    15    16    1
    41    16    17    1
    42    20    21   ar
    43    21    22   ar
    44    22    23    1
    45    22    24   ar
    46    24    25    1
    47    24    18   ar
    48    17    12    1
    49    11     5   ar
    50    49    41   ar
    51    39    34   ar
    52    49    44   ar
    53     3     4    1
    54    43    50    1
    55    32    33    1
@<TRIPOS>MOLECULE
*****
 50 55 0 0 0
SMALL
GASTEIGER

@<TRIPOS>ATOM
      1 C         -20.5345   54.8781   -9.9492 C.2     1  UNL1        0.2483
      2 O         -19.6014   54.7872  -10.7936 O.2     1  UNL1       -0.2701
      3 N         -20.4949   55.9220   -8.9638 N.am    1  UNL1       -0.2945
      4 H         -21.3936   56.2083   -8.5156 H       1  UNL1        0.1501
      5 C         -23.7631   52.0231   -9.9981 C.ar    1  UNL1        0.0502
      6 C         -22.4438   51.6141   -9.7554 C.ar    1  UNL1        0.0148
      7 C         -21.4038   52.5468   -9.7510 C.ar    1  UNL1        0.0080
      8 C         -21.6575   53.9074  -10.0010 C.ar    1  UNL1        0.0808
      9 C         -22.9867   54.3154  -10.2455 C.ar    1  UNL1        0.1457
     10 F         -23.3036   55.6199  -10.4385 F       1  UNL1       -0.2040
     11 C         -24.0237   53.3780  -10.2440 C.ar    1  UNL1        0.0443
     12 N         -27.1816   49.6111   -9.6702 N.pl3   1  UNL1       -0.3041
     13 C         -26.2806   49.7379   -8.5186 C.3     1  UNL1        0.1122
     14 C         -24.8531   49.9840   -9.0024 C.3     1  UNL1        0.1122
     15 N         -24.8415   51.0692   -9.9909 N.pl3   1  UNL1       -0.3040
     16 C         -25.7454   50.9587  -11.1424 C.3     1  UNL1        0.1122
     17 C         -27.1753   50.6874  -10.6682 C.3     1  UNL1        0.1122
     18 C         -30.0819   47.5346   -8.4772 C.ar    1  UNL1       -0.0099
     19 C         -29.0411   48.4841   -8.5187 C.ar    1  UNL1        0.0111
     20 C         -28.2373   48.6320   -9.6556 C.ar    1  UNL1        0.0485
     21 C         -28.4673   47.8153  -10.7685 C.ar    1  UNL1        0.0267
     22 C         -29.4895   46.8647  -10.7527 C.ar    1  UNL1        0.0691
     23 CL        -29.7278   45.8727  -12.1872 Cl      1  UNL1       -0.0813
     24 C         -30.3031   46.7147   -9.6136 C.ar    1  UNL1        0.0643
     25 CL        -31.5822   45.4953   -9.6412 Cl      1  UNL1       -0.0817
     26 C         -30.2344   46.5306   -6.1684 C.3     1  UNL1        0.0047
     27 C         -30.9278   47.4135   -7.2135 C.3     1  UNL1        0.0233
     28 C         -31.2604   48.7949   -6.6344 C.3     1  UNL1        0.0047
     29 C         -19.2606   56.6619   -8.6594 C.3     1  UNL1        0.1535
     30 C         -19.5471   58.1143   -8.3539 C.2     1  UNL1        0.2443
     31 O         -19.9369   58.8880   -9.2710 O.2     1  UNL1       -0.2730
     32 N         -19.4723   58.5811   -6.9974 N.am    1  UNL1       -0.2825
     33 H         -19.4490   57.8642   -6.2369 H       1  UNL1        0.1549
     34 C         -19.5504   59.9654   -6.6164 C.ar    1  UNL1        0.0535
     35 C         -19.1100   60.9900   -7.4716 C.ar    1  UNL1        0.0353
     36 C         -19.1836   62.3195   -7.0483 C.ar    1  UNL1        0.1002
     37 N         -19.6647   62.6170   -5.8123 N.ar    1  UNL1       -0.2422
     38 C         -20.0800   61.6453   -4.9575 C.ar    1  UNL1        0.1002
     39 C         -20.0224   60.3033   -5.3407 C.ar    1  UNL1        0.0353
     40 C         -18.4712   55.9996   -7.5078 C.3     1  UNL1        0.0569
     41 C         -18.9032   54.5847   -7.2299 C.ar    1  UNL1       -0.0017
     42 C         -19.9979   54.1865   -6.4673 C.ar    1  UNL1        0.0681
     43 N         -20.1246   52.8405   -6.4878 N.ar    1  UNL1       -0.3523
     44 C         -19.1185   52.3837   -7.2529 C.ar    1  UNL1        0.0563
     45 C         -18.8463   51.0570   -7.5844 C.ar    1  UNL1        0.0170
     46 C         -17.7412   50.7999   -8.4159 C.ar    1  UNL1        0.0015
     47 C         -16.9374   51.8614   -8.8856 C.ar    1  UNL1        0.0001
     48 C         -17.2333   53.1899   -8.5318 C.ar    1  UNL1        0.0012
     49 C         -18.3454   53.4170   -7.7184 C.ar    1  UNL1        0.0131
     50 H         -20.8618   52.2751   -6.0111 H       1  UNL1        0.1660
@<TRIPOS>BOND
     1    26    27    1
     2    27    28    1
     3    27    18    1
     4    18    19   ar
     5    19    20   ar
     6    20    12    1
     7    12    13    1
     8    13    14    1
     9    14    15    1
    10    15     5    1
    11     5     6   ar
    12     6     7   ar
    13     7     8   ar
    14     8     1    1
    15     1     2    2
    16     1     3   am
    17     3    29    1
    18    29    40    1
    19    40    41    1
    20    41    42   ar
    21    42    43   ar
    22    43    44   ar
    23    44    45   ar
    24    45    46   ar
    25    46    47   ar
    26    47    48   ar
    27    48    49   ar
    28    29    30    1
    29    30    31    2
    30    30    32   am
    31    32    34    1
    32    34    35   ar
    33    35    36   ar
    34    36    37   ar
    35    37    38   ar
    36    38    39   ar
    37     8     9   ar
    38     9    10    1
    39     9    11   ar
    40    15    16    1
    41    16    17    1
    42    20    21   ar
    43    21    22   ar
    44    22    23    1
    45    22    24   ar
    46    24    25    1
    47    24    18   ar
    48    17    12    1
    49    11     5   ar
    50    49    41   ar
    51    39    34   ar
    52    49    44   ar
    53     3     4    1
    54    43    50    1
    55    32    33    1
@<TRIPOS>MOLECULE
*****
 50 55 0 0 0
SMALL
GASTEIGER

@<TRIPOS>ATOM
      1 C         -29.5944   49.4490  -11.2553 C.2     1  UNL1        0.2483
      2 O         -30.6576   50.0677  -10.9749 O.2     1  UNL1       -0.2701
      3 N         -29.6688   48.2085  -11.9750 N.am    1  UNL1       -0.2945
      4 H         -28.8216   47.8922  -12.4970 H       1  UNL1        0.1501
      5 C         -25.7636   51.0151  -10.0513 C.ar    1  UNL1        0.0502
      6 C         -26.3965   50.0091   -9.3069 C.ar    1  UNL1        0.0148
      7 C         -27.6423   49.5153   -9.7012 C.ar    1  UNL1        0.0080
      8 C         -28.2890   50.0244  -10.8417 C.ar    1  UNL1        0.0808
      9 C         -27.6493   51.0376  -11.5883 C.ar    1  UNL1        0.1457
     10 F         -28.1954   51.5304  -12.7276 F       1  UNL1       -0.2040
     11 C         -26.4004   51.5242  -11.1912 C.ar    1  UNL1        0.0443
     12 N         -21.7976   52.0144   -9.1113 N.pl3   1  UNL1       -0.3041
     13 C         -22.5006   51.0219   -8.2900 C.3     1  UNL1        0.1122
     14 C         -23.9980   51.3222   -8.2833 C.3     1  UNL1        0.1122
     15 N         -24.4735   51.5192   -9.6581 N.pl3   1  UNL1       -0.3040
     16 C         -23.7723   52.5022  -10.4928 C.3     1  UNL1        0.1122
     17 C         -22.2671   52.2241  -10.4861 C.3     1  UNL1        0.1122
     18 C         -18.1026   52.2301   -8.4420 C.ar    1  UNL1       -0.0099
     19 C         -19.3653   51.7528   -8.8473 C.ar    1  UNL1        0.0111
     20 C         -20.5207   52.5274   -8.6872 C.ar    1  UNL1        0.0485
     21 C         -20.4198   53.7964   -8.1061 C.ar    1  UNL1        0.0267
     22 C         -19.1818   54.2921   -7.6930 C.ar    1  UNL1        0.0691
     23 CL        -19.1246   55.8976   -6.9734 Cl      1  UNL1       -0.0813
     24 C         -18.0167   53.5189   -7.8554 C.ar    1  UNL1        0.0643
     25 CL        -16.4734   54.1891   -7.3139 Cl      1  UNL1       -0.0817
     26 C         -16.2363   51.5864  -10.0118 C.3     1  UNL1        0.0047
     27 C         -16.8755   51.3455   -8.6384 C.3     1  UNL1        0.0233
     28 C         -15.8552   51.5545   -7.5116 C.3     1  UNL1        0.0047
     29 C         -30.9210   47.4447  -12.0867 C.3     1  UNL1        0.1535
     30 C         -31.0059   46.7112  -13.4056 C.2     1  UNL1        0.2443
     31 O         -31.5836   45.5914  -13.4701 O.2     1  UNL1       -0.2730
     32 N         -30.5177   47.3425  -14.6002 N.am    1  UNL1       -0.2825
     33 H         -30.3309   48.3705  -14.5654 H       1  UNL1        0.1549
     34 C         -30.3867   46.6762  -15.8675 C.ar    1  UNL1        0.0535
     35 C         -30.4868   45.2787  -15.9781 C.ar    1  UNL1        0.0353
     36 C         -30.3288   44.6737  -17.2275 C.ar    1  UNL1        0.1002
     37 N         -30.0658   45.4315  -18.3249 N.ar    1  UNL1       -0.2422
     38 C         -29.9453   46.7829  -18.2442 C.ar    1  UNL1        0.1002
     39 C         -30.0949   47.4277  -17.0141 C.ar    1  UNL1        0.0353
     40 C         -31.0999   46.4714  -10.8999 C.3     1  UNL1        0.0569
     41 C         -29.8249   46.2239  -10.1389 C.ar    1  UNL1       -0.0017
     42 C         -28.7246   45.4935  -10.5796 C.ar    1  UNL1        0.0681
     43 N         -27.7307   45.5358   -9.6639 N.ar    1  UNL1       -0.3523
     44 C         -28.1934   46.2828   -8.6470 C.ar    1  UNL1        0.0563
     45 C         -27.5172   46.6262   -7.4769 C.ar    1  UNL1        0.0170
     46 C         -28.1888   47.4344   -6.5418 C.ar    1  UNL1        0.0015
     47 C         -29.5088   47.8697   -6.7902 C.ar    1  UNL1        0.0001
     48 C         -30.1679   47.5045   -7.9776 C.ar    1  UNL1        0.0012
     49 C         -29.4715   46.7151   -8.8950 C.ar    1  UNL1        0.0131
     50 H         -26.7918   45.0850   -9.7397 H       1  UNL1        0.1660
@<TRIPOS>BOND
     1    26    27    1
     2    27    28    1
     3    27    18    1
     4    18    19   ar
     5    19    20   ar
     6    20    12    1
     7    12    13    1
     8    13    14    1
     9    14    15    1
    10    15     5    1
    11     5     6   ar
    12     6     7   ar
    13     7     8   ar
    14     8     1    1
    15     1     2    2
    16     1     3   am
    17     3    29    1
    18    29    40    1
    19    40    41    1
    20    41    42   ar
    21    42    43   ar
    22    43    44   ar
    23    44    45   ar
    24    45    46   ar
    25    46    47   ar
    26    47    48   ar
    27    48    49   ar
    28    29    30    1
    29    30    31    2
    30    30    32   am
    31    32    34    1
    32    34    35   ar
    33    35    36   ar
    34    36    37   ar
    35    37    38   ar
    36    38    39   ar
    37     8     9   ar
    38     9    10    1
    39     9    11   ar
    40    15    16    1
    41    16    17    1
    42    20    21   ar
    43    21    22   ar
    44    22    23    1
    45    22    24   ar
    46    24    25    1
    47    24    18   ar
    48    17    12    1
    49    11     5   ar
    50    49    41   ar
    51    39    34   ar
    52    49    44   ar
    53     3     4    1
    54    43    50    1
    55    32    33    1
