@<TRIPOS>MOLECULE
*****
 48 53 0 0 0
SMALL
GASTEIGER

@<TRIPOS>ATOM
      1 C           7.1530   76.4061   29.4710 C.2     1  UNL1        0.2483
      2 O           6.3922   76.1276   30.4358 O.2     1  UNL1       -0.2701
      3 N           8.5053   76.8047   29.7383 N.am    1  UNL1       -0.2945
      4 H           8.9927   76.3232   30.5275 H       1  UNL1        0.1501
      5 C           5.7320   76.0144   25.4395 C.ar    1  UNL1        0.0502
      6 C           5.6210   77.2354   26.1240 C.ar    1  UNL1        0.0148
      7 C           6.0788   77.3552   27.4377 C.ar    1  UNL1        0.0080
      8 C           6.6556   76.2577   28.0917 C.ar    1  UNL1        0.0808
      9 C           6.8002   75.0432   27.4009 C.ar    1  UNL1        0.1457
     10 F           7.3668   73.9677   28.0038 F       1  UNL1       -0.2040
     11 C           6.3332   74.9218   26.0883 C.ar    1  UNL1        0.0443
     12 N           4.5382   75.9908   21.3838 N.pl3   1  UNL1       -0.3017
     13 C           3.4741   76.2192   22.3657 C.3     1  UNL1        0.1123
     14 C           4.0816   76.7157   23.6792 C.3     1  UNL1        0.1122
     15 N           5.2207   75.8813   24.0979 N.pl3   1  UNL1       -0.3040
     16 C           5.7118   74.8056   23.2235 C.3     1  UNL1        0.1122
     17 C           5.7655   75.2796   21.7661 C.3     1  UNL1        0.1123
     18 C           3.5644   75.9980   19.1148 C.ar    1  UNL1        0.1519
     19 C           3.4951   76.5697   17.8286 C.ar    1  UNL1        0.0390
     20 C           4.2719   77.6862   17.5086 C.ar    1  UNL1        0.0146
     21 C           5.1238   78.2455   18.4637 C.ar    1  UNL1        0.0591
     22 CL          6.0953   79.6490   18.0597 Cl      1  UNL1       -0.0822
     23 C           5.2036   77.6842   19.7404 C.ar    1  UNL1        0.0290
     24 C           4.4336   76.5589   20.0698 C.ar    1  UNL1        0.0832
     25 C           1.3605   74.8437   19.3878 C.3     1  UNL1        0.2525
     26 O           2.7803   74.8922   19.4799 O.3     1  UNL1       -0.4702
     27 C           9.0744   78.0840   29.2900 C.3     1  UNL1        0.1535
     28 C           9.2250   79.0498   30.4419 C.2     1  UNL1        0.2443
     29 O           9.4222   78.6156   31.6096 O.2     1  UNL1       -0.2730
     30 N           9.1874   80.4641   30.1832 N.am    1  UNL1       -0.2825
     31 H           9.1628   80.7613   29.1812 H       1  UNL1        0.1549
     32 C           9.3143   81.4988   31.1783 C.ar    1  UNL1        0.0535
     33 C           9.9274   82.7101   30.8254 C.ar    1  UNL1        0.0353
     34 C          10.0329   83.7363   31.7667 C.ar    1  UNL1        0.1002
     35 N           9.5296   83.5686   33.0174 N.ar    1  UNL1       -0.2422
     36 C           8.9147   82.4148   33.3872 C.ar    1  UNL1        0.1002
     37 C           8.7902   81.3618   32.4772 C.ar    1  UNL1        0.0353
     38 C          10.3962   77.8686   28.5203 C.3     1  UNL1        0.0569
     39 C          10.2117   76.9395   27.3524 C.ar    1  UNL1       -0.0017
     40 C          10.5627   75.5927   27.3061 C.ar    1  UNL1        0.0681
     41 N          10.2660   75.0675   26.0960 N.ar    1  UNL1       -0.3523
     42 C           9.7273   76.0681   25.3785 C.ar    1  UNL1        0.0563
     43 C           9.2619   76.0080   24.0656 C.ar    1  UNL1        0.0170
     44 C           8.7267   77.1807   23.5030 C.ar    1  UNL1        0.0015
     45 C           8.6662   78.3727   24.2576 C.ar    1  UNL1        0.0001
     46 C           9.1416   78.4039   25.5810 C.ar    1  UNL1        0.0012
     47 C           9.6736   77.2271   26.1112 C.ar    1  UNL1        0.0131
     48 H          10.4241   74.0828   25.7865 H       1  UNL1        0.1660
@<TRIPOS>BOND
     1    25    26    1
     2    26    18    1
     3    18    19   ar
     4    19    20   ar
     5    20    21   ar
     6    21    22    1
     7    21    23   ar
     8    23    24   ar
     9    24    12    1
    10    12    13    1
    11    13    14    1
    12    14    15    1
    13    15     5    1
    14     5     6   ar
    15     6     7   ar
    16     7     8   ar
    17     8     1    1
    18     1     2    2
    19     1     3   am
    20     3    27    1
    21    27    38    1
    22    38    39    1
    23    39    40   ar
    24    40    41   ar
    25    41    42   ar
    26    42    43   ar
    27    43    44   ar
    28    44    45   ar
    29    45    46   ar
    30    46    47   ar
    31    27    28    1
    32    28    29    2
    33    28    30   am
    34    30    32    1
    35    32    33   ar
    36    33    34   ar
    37    34    35   ar
    38    35    36   ar
    39    36    37   ar
    40     8     9   ar
    41     9    10    1
    42     9    11   ar
    43    15    16    1
    44    16    17    1
    45    24    18   ar
    46    17    12    1
    47    11     5   ar
    48    47    39   ar
    49    37    32   ar
    50    47    42   ar
    51     3     4    1
    52    41    48    1
    53    30    31    1
@<TRIPOS>MOLECULE
*****
 48 53 0 0 0
SMALL
GASTEIGER

@<TRIPOS>ATOM
      1 C           8.1922   76.5001   28.9463 C.2     1  UNL1        0.2483
      2 O           7.5617   76.4394   30.0354 O.2     1  UNL1       -0.2701
      3 N           9.6184   76.6561   28.9709 N.am    1  UNL1       -0.2945
      4 H          10.1363   76.1497   29.7243 H       1  UNL1        0.1501
      5 C           6.0469   76.0113   25.2607 C.ar    1  UNL1        0.0502
      6 C           7.0849   75.1321   25.6087 C.ar    1  UNL1        0.0148
      7 C           7.7840   75.3000   26.8058 C.ar    1  UNL1        0.0080
      8 C           7.4590   76.3491   27.6769 C.ar    1  UNL1        0.0808
      9 C           6.3994   77.2114   27.3503 C.ar    1  UNL1        0.1457
     10 F           6.0535   78.2276   28.1805 F       1  UNL1       -0.2040
     11 C           5.7060   77.0478   26.1470 C.ar    1  UNL1        0.0443
     12 N           4.3212   75.9159   21.4022 N.pl3   1  UNL1       -0.3017
     13 C           3.4113   76.2376   22.5055 C.3     1  UNL1        0.1123
     14 C           4.2140   76.7439   23.7056 C.3     1  UNL1        0.1122
     15 N           5.3545   75.8614   24.0048 N.pl3   1  UNL1       -0.3040
     16 C           5.6681   74.7302   23.1188 C.3     1  UNL1        0.1122
     17 C           5.5505   75.1501   21.6486 C.3     1  UNL1        0.1123
     18 C           3.1277   75.8336   19.2423 C.ar    1  UNL1        0.1519
     19 C           2.9152   76.3665   17.9551 C.ar    1  UNL1        0.0390
     20 C           3.6246   77.4930   17.5305 C.ar    1  UNL1        0.0146
     21 C           4.5508   78.1008   18.3811 C.ar    1  UNL1        0.0591
     22 CL          5.4373   79.5167   17.8462 Cl      1  UNL1       -0.0822
     23 C           4.7725   77.5783   19.6576 C.ar    1  UNL1        0.0290
     24 C           4.0709   76.4435   20.0910 C.ar    1  UNL1        0.0832
     25 C           1.0286   74.4920   19.4831 C.3     1  UNL1        0.2525
     26 O           2.4152   74.7190   19.7121 O.3     1  UNL1       -0.4702
     27 C          10.3210   77.7703   28.3180 C.3     1  UNL1        0.1535
     28 C          11.1252   77.2907   27.1324 C.2     1  UNL1        0.2443
     29 O          10.8566   76.1828   26.5925 O.2     1  UNL1       -0.2730
     30 N          12.1646   78.1311   26.6014 N.am    1  UNL1       -0.2825
     31 H          12.2453   79.0937   27.0014 H       1  UNL1        0.1549
     32 C          13.0110   77.8060   25.4812 C.ar    1  UNL1        0.0535
     33 C          12.4359   77.2284   24.3396 C.ar    1  UNL1        0.0353
     34 C          13.2340   76.9337   23.2321 C.ar    1  UNL1        0.1002
     35 N          14.5620   77.2196   23.2534 N.ar    1  UNL1       -0.2422
     36 C          15.1479   77.7945   24.3361 C.ar    1  UNL1        0.1002
     37 C          14.3865   78.1031   25.4663 C.ar    1  UNL1        0.0353
     38 C           9.3438   78.9085   27.9501 C.3     1  UNL1        0.0569
     39 C           9.7800   79.6324   26.7064 C.ar    1  UNL1       -0.0017
     40 C          10.5219   80.8098   26.6544 C.ar    1  UNL1        0.0681
     41 N          10.7232   81.1863   25.3715 N.ar    1  UNL1       -0.3523
     42 C          10.1192   80.2563   24.6121 C.ar    1  UNL1        0.0563
     43 C          10.0582   80.2150   23.2198 C.ar    1  UNL1        0.0170
     44 C           9.3741   79.1409   22.6229 C.ar    1  UNL1        0.0015
     45 C           8.7760   78.1416   23.4215 C.ar    1  UNL1        0.0001
     46 C           8.8548   78.2078   24.8243 C.ar    1  UNL1        0.0012
     47 C           9.5342   79.2886   25.3895 C.ar    1  UNL1        0.0131
     48 H          11.2441   82.0292   25.0421 H       1  UNL1        0.1660
@<TRIPOS>BOND
     1    25    26    1
     2    26    18    1
     3    18    19   ar
     4    19    20   ar
     5    20    21   ar
     6    21    22    1
     7    21    23   ar
     8    23    24   ar
     9    24    12    1
    10    12    13    1
    11    13    14    1
    12    14    15    1
    13    15     5    1
    14     5     6   ar
    15     6     7   ar
    16     7     8   ar
    17     8     1    1
    18     1     2    2
    19     1     3   am
    20     3    27    1
    21    27    38    1
    22    38    39    1
    23    39    40   ar
    24    40    41   ar
    25    41    42   ar
    26    42    43   ar
    27    43    44   ar
    28    44    45   ar
    29    45    46   ar
    30    46    47   ar
    31    27    28    1
    32    28    29    2
    33    28    30   am
    34    30    32    1
    35    32    33   ar
    36    33    34   ar
    37    34    35   ar
    38    35    36   ar
    39    36    37   ar
    40     8     9   ar
    41     9    10    1
    42     9    11   ar
    43    15    16    1
    44    16    17    1
    45    24    18   ar
    46    17    12    1
    47    11     5   ar
    48    47    39   ar
    49    37    32   ar
    50    47    42   ar
    51     3     4    1
    52    41    48    1
    53    30    31    1
@<TRIPOS>MOLECULE
*****
 48 53 0 0 0
SMALL
GASTEIGER

@<TRIPOS>ATOM
      1 C           1.7163   78.7032   22.4797 C.2     1  UNL1        0.2483
      2 O           0.5798   79.1493   22.7904 O.2     1  UNL1       -0.2701
      3 N           2.2291   78.9501   21.1625 N.am    1  UNL1       -0.2945
      4 H           2.0180   79.8826   20.7403 H       1  UNL1        0.1501
      5 C           4.0738   76.6745   25.4381 C.ar    1  UNL1        0.0502
      6 C           4.6853   77.3100   24.3455 C.ar    1  UNL1        0.0148
      7 C           3.9130   77.9625   23.3824 C.ar    1  UNL1        0.0080
      8 C           2.5159   77.9923   23.4931 C.ar    1  UNL1        0.0808
      9 C           1.9006   77.3875   24.6016 C.ar    1  UNL1        0.1457
     10 F           0.5511   77.4119   24.7423 F       1  UNL1       -0.2040
     11 C           2.6743   76.7265   25.5607 C.ar    1  UNL1        0.0443
     12 N           6.7715   74.9101   28.1738 N.pl3   1  UNL1       -0.3017
     13 C           6.2317   74.0221   27.1401 C.3     1  UNL1        0.1123
     14 C           5.7241   74.8527   25.9597 C.3     1  UNL1        0.1122
     15 N           4.8702   75.9655   26.4087 N.pl3   1  UNL1       -0.3040
     16 C           4.6955   76.2324   27.8445 C.3     1  UNL1        0.1122
     17 C           6.0358   76.1151   28.5802 C.3     1  UNL1        0.1123
     18 C           9.2130   75.2782   28.1540 C.ar    1  UNL1        0.1519
     19 C          10.4831   75.0063   28.7007 C.ar    1  UNL1        0.0390
     20 C          10.6123   74.1471   29.7951 C.ar    1  UNL1        0.0146
     21 C           9.4810   73.5511   30.3568 C.ar    1  UNL1        0.0591
     22 CL          9.6464   72.4755   31.7326 Cl      1  UNL1       -0.0822
     23 C           8.2175   73.8102   29.8201 C.ar    1  UNL1        0.0290
     24 C           8.0774   74.6654   28.7171 C.ar    1  UNL1        0.0832
     25 C           9.4739   75.8900   25.7413 C.3     1  UNL1        0.2525
     26 O           9.0421   76.1556   27.0715 O.3     1  UNL1       -0.4702
     27 C           2.6313   77.8801   20.2380 C.3     1  UNL1        0.1535
     28 C           3.9861   78.1611   19.6316 C.2     1  UNL1        0.2443
     29 O           4.1086   78.2719   18.3811 O.2     1  UNL1       -0.2730
     30 N           5.1195   78.3461   20.4975 N.am    1  UNL1       -0.2825
     31 H           4.9290   78.3821   21.5249 H       1  UNL1        0.1549
     32 C           6.4668   78.6166   20.0635 C.ar    1  UNL1        0.0535
     33 C           7.5380   78.1315   20.8283 C.ar    1  UNL1        0.0353
     34 C           8.8507   78.3572   20.4085 C.ar    1  UNL1        0.1002
     35 N           9.0908   79.0319   19.2540 N.ar    1  UNL1       -0.2422
     36 C           8.0767   79.5005   18.4807 C.ar    1  UNL1        0.1002
     37 C           6.7485   79.2990   18.8654 C.ar    1  UNL1        0.0353
     38 C           2.5631   76.4964   20.9210 C.3     1  UNL1        0.0569
     39 C           3.4996   75.5132   20.2749 C.ar    1  UNL1       -0.0017
     40 C           3.4026   75.0100   18.9800 C.ar    1  UNL1        0.0681
     41 N           4.4063   74.1380   18.7346 N.ar    1  UNL1       -0.3523
     42 C           5.1390   74.0882   19.8602 C.ar    1  UNL1        0.0563
     43 C           6.2835   73.3252   20.0877 C.ar    1  UNL1        0.0170
     44 C           6.9031   73.4276   21.3462 C.ar    1  UNL1        0.0015
     45 C           6.3730   74.2831   22.3367 C.ar    1  UNL1        0.0001
     46 C           5.2177   75.0429   22.0789 C.ar    1  UNL1        0.0012
     47 C           4.6200   74.9163   20.8236 C.ar    1  UNL1        0.0131
     48 H           4.5749   73.6127   17.8479 H       1  UNL1        0.1660
@<TRIPOS>BOND
     1    25    26    1
     2    26    18    1
     3    18    19   ar
     4    19    20   ar
     5    20    21   ar
     6    21    22    1
     7    21    23   ar
     8    23    24   ar
     9    24    12    1
    10    12    13    1
    11    13    14    1
    12    14    15    1
    13    15     5    1
    14     5     6   ar
    15     6     7   ar
    16     7     8   ar
    17     8     1    1
    18     1     2    2
    19     1     3   am
    20     3    27    1
    21    27    38    1
    22    38    39    1
    23    39    40   ar
    24    40    41   ar
    25    41    42   ar
    26    42    43   ar
    27    43    44   ar
    28    44    45   ar
    29    45    46   ar
    30    46    47   ar
    31    27    28    1
    32    28    29    2
    33    28    30   am
    34    30    32    1
    35    32    33   ar
    36    33    34   ar
    37    34    35   ar
    38    35    36   ar
    39    36    37   ar
    40     8     9   ar
    41     9    10    1
    42     9    11   ar
    43    15    16    1
    44    16    17    1
    45    24    18   ar
    46    17    12    1
    47    11     5   ar
    48    47    39   ar
    49    37    32   ar
    50    47    42   ar
    51     3     4    1
    52    41    48    1
    53    30    31    1
@<TRIPOS>MOLECULE
*****
 48 53 0 0 0
SMALL
GASTEIGER

@<TRIPOS>ATOM
      1 C          10.3136   77.4979   27.4821 C.2     1  UNL1        0.2483
      2 O          11.4972   77.0948   27.6369 O.2     1  UNL1       -0.2701
      3 N           9.6809   78.2339   28.5390 N.am    1  UNL1       -0.2945
      4 H          10.2810   78.9003   29.0757 H       1  UNL1        0.1501
      5 C           8.3602   76.8192   23.7205 C.ar    1  UNL1        0.0502
      6 C           8.7917   78.1053   24.0832 C.ar    1  UNL1        0.0148
      7 C           9.4204   78.3214   25.3111 C.ar    1  UNL1        0.0080
      8 C           9.6296   77.2571   26.1991 C.ar    1  UNL1        0.0808
      9 C           9.2307   75.9626   25.8275 C.ar    1  UNL1        0.1457
     10 F           9.4323   74.9107   26.6608 F       1  UNL1       -0.2040
     11 C           8.5931   75.7488   24.6015 C.ar    1  UNL1        0.0443
     12 N           5.9355   76.3207   20.2931 N.pl3   1  UNL1       -0.3017
     13 C           6.6938   75.1415   20.7210 C.3     1  UNL1        0.1123
     14 C           7.0839   75.2851   22.1935 C.3     1  UNL1        0.1122
     15 N           7.6738   76.6058   22.4706 N.pl3   1  UNL1       -0.3040
     16 C           7.7186   77.6325   21.4185 C.3     1  UNL1        0.1122
     17 C           6.3934   77.6709   20.6478 C.3     1  UNL1        0.1123
     18 C           4.3703   76.9327   18.4841 C.ar    1  UNL1        0.1519
     19 C           3.1226   76.7598   17.8523 C.ar    1  UNL1        0.0390
     20 C           2.2076   75.8227   18.3393 C.ar    1  UNL1        0.0146
     21 C           2.5242   75.0484   19.4577 C.ar    1  UNL1        0.0591
     22 CL          1.3746   73.8707   20.0645 Cl      1  UNL1       -0.0822
     23 C           3.7565   75.2147   20.0944 C.ar    1  UNL1        0.0290
     24 C           4.6793   76.1577   19.6181 C.ar    1  UNL1        0.0832
     25 C           5.0727   79.2274   17.7734 C.3     1  UNL1        0.2525
     26 O           5.3243   77.8460   18.0080 O.3     1  UNL1       -0.4702
     27 C           8.4230   77.8156   29.1746 C.3     1  UNL1        0.1535
     28 C           7.2378   78.0983   28.2815 C.2     1  UNL1        0.2443
     29 O           6.8701   79.2872   28.0760 O.2     1  UNL1       -0.2730
     30 N           6.5673   77.0023   27.6350 N.am    1  UNL1       -0.2825
     31 H           7.0037   76.0573   27.7319 H       1  UNL1        0.1549
     32 C           5.4269   77.1192   26.7616 C.ar    1  UNL1        0.0535
     33 C           5.5973   76.8967   25.3873 C.ar    1  UNL1        0.0353
     34 C           4.4988   76.9755   24.5285 C.ar    1  UNL1        0.1002
     35 N           3.2645   77.2520   25.0241 N.ar    1  UNL1       -0.2422
     36 C           3.0611   77.4560   26.3518 C.ar    1  UNL1        0.1002
     37 C           4.1332   77.3892   27.2456 C.ar    1  UNL1        0.0353
     38 C           8.4878   76.3392   29.6240 C.3     1  UNL1        0.0569
     39 C           7.1408   75.8340   30.0616 C.ar    1  UNL1       -0.0017
     40 C           6.3980   76.2970   31.1447 C.ar    1  UNL1        0.0681
     41 N           5.2398   75.6081   31.2536 N.ar    1  UNL1       -0.3523
     42 C           5.2414   74.7169   30.2476 C.ar    1  UNL1        0.0563
     43 C           4.2508   73.7827   29.9477 C.ar    1  UNL1        0.0170
     44 C           4.4529   72.9429   28.8377 C.ar    1  UNL1        0.0015
     45 C           5.6255   73.0565   28.0592 C.ar    1  UNL1        0.0001
     46 C           6.6077   74.0095   28.3840 C.ar    1  UNL1        0.0012
     47 C           6.3836   74.8250   29.4947 C.ar    1  UNL1        0.0131
     48 H           4.4967   75.7449   31.9744 H       1  UNL1        0.1660
@<TRIPOS>BOND
     1    25    26    1
     2    26    18    1
     3    18    19   ar
     4    19    20   ar
     5    20    21   ar
     6    21    22    1
     7    21    23   ar
     8    23    24   ar
     9    24    12    1
    10    12    13    1
    11    13    14    1
    12    14    15    1
    13    15     5    1
    14     5     6   ar
    15     6     7   ar
    16     7     8   ar
    17     8     1    1
    18     1     2    2
    19     1     3   am
    20     3    27    1
    21    27    38    1
    22    38    39    1
    23    39    40   ar
    24    40    41   ar
    25    41    42   ar
    26    42    43   ar
    27    43    44   ar
    28    44    45   ar
    29    45    46   ar
    30    46    47   ar
    31    27    28    1
    32    28    29    2
    33    28    30   am
    34    30    32    1
    35    32    33   ar
    36    33    34   ar
    37    34    35   ar
    38    35    36   ar
    39    36    37   ar
    40     8     9   ar
    41     9    10    1
    42     9    11   ar
    43    15    16    1
    44    16    17    1
    45    24    18   ar
    46    17    12    1
    47    11     5   ar
    48    47    39   ar
    49    37    32   ar
    50    47    42   ar
    51     3     4    1
    52    41    48    1
    53    30    31    1
@<TRIPOS>MOLECULE
*****
 48 53 0 0 0
SMALL
GASTEIGER

@<TRIPOS>ATOM
      1 C           1.9367   77.8990   21.9086 C.2     1  UNL1        0.2483
      2 O           0.7464   78.2714   22.0872 O.2     1  UNL1       -0.2701
      3 N           2.5238   78.0318   20.6060 N.am    1  UNL1       -0.2945
      4 H           2.2666   78.8826   20.0563 H       1  UNL1        0.1501
      5 C           4.2486   76.4384   25.2173 C.ar    1  UNL1        0.0502
      6 C           4.4900   75.9760   23.9136 C.ar    1  UNL1        0.0148
      7 C           3.7302   76.4495   22.8420 C.ar    1  UNL1        0.0080
      8 C           2.7156   77.3934   23.0530 C.ar    1  UNL1        0.0808
      9 C           2.4920   77.8850   24.3497 C.ar    1  UNL1        0.1457
     10 F           1.5257   78.8089   24.5821 F       1  UNL1       -0.2040
     11 C           3.2474   77.4034   25.4235 C.ar    1  UNL1        0.0443
     12 N           6.8683   75.0928   28.2506 N.pl3   1  UNL1       -0.3017
     13 C           6.0672   74.0594   27.5883 C.3     1  UNL1        0.1123
     14 C           5.5909   74.5692   26.2266 C.3     1  UNL1        0.1122
     15 N           5.0060   75.9171   26.3279 N.pl3   1  UNL1       -0.3040
     16 C           5.0411   76.6456   27.6051 C.3     1  UNL1        0.1122
     17 C           6.4109   76.4887   28.2762 C.3     1  UNL1        0.1123
     18 C           9.3281   75.3038   28.2099 C.ar    1  UNL1        0.1519
     19 C          10.5828   74.9513   28.7461 C.ar    1  UNL1        0.0390
     20 C          10.6660   74.0858   29.8400 C.ar    1  UNL1        0.0146
     21 C           9.5037   73.5636   30.4117 C.ar    1  UNL1        0.0591
     22 CL          9.6115   72.4801   31.7869 Cl      1  UNL1       -0.0822
     23 C           8.2549   73.9030   29.8855 C.ar    1  UNL1        0.0290
     24 C           8.1605   74.7651   28.7830 C.ar    1  UNL1        0.0832
     25 C           9.3513   75.8206   25.7612 C.3     1  UNL1        0.2525
     26 O           9.2046   76.1900   27.1281 O.3     1  UNL1       -0.4702
     27 C           3.0831   76.9002   19.8525 C.3     1  UNL1        0.1535
     28 C           2.0065   76.1652   19.0890 C.2     1  UNL1        0.2443
     29 O           1.8358   76.3920   17.8600 O.2     1  UNL1       -0.2730
     30 N           1.2143   75.1750   19.7678 N.am    1  UNL1       -0.2825
     31 H           1.4960   74.9324   20.7449 H       1  UNL1        0.1549
     32 C           0.1556   74.4001   19.1715 C.ar    1  UNL1        0.0535
     33 C           0.3083   73.0100   19.0635 C.ar    1  UNL1        0.0353
     34 C          -0.7188   72.2379   18.5163 C.ar    1  UNL1        0.1002
     35 N          -1.8701   72.8291   18.1032 N.ar    1  UNL1       -0.2422
     36 C          -2.0577   74.1706   18.2090 C.ar    1  UNL1        0.1002
     37 C          -1.0546   74.9804   18.7480 C.ar    1  UNL1        0.0353
     38 C           4.2483   77.3539   18.9456 C.3     1  UNL1        0.0569
     39 C           5.5182   77.5424   19.7286 C.ar    1  UNL1       -0.0017
     40 C           6.1517   78.7539   19.9939 C.ar    1  UNL1        0.0681
     41 N           7.2777   78.5515   20.7144 N.ar    1  UNL1       -0.3523
     42 C           7.3600   77.2244   20.9104 C.ar    1  UNL1        0.0563
     43 C           8.3535   76.5351   21.6046 C.ar    1  UNL1        0.0170
     44 C           8.2429   75.1359   21.6948 C.ar    1  UNL1        0.0015
     45 C           7.1526   74.4649   21.0989 C.ar    1  UNL1        0.0001
     46 C           6.1637   75.1862   20.4060 C.ar    1  UNL1        0.0012
     47 C           6.3026   76.5730   20.3267 C.ar    1  UNL1        0.0131
     48 H           7.9448   79.2816   21.0495 H       1  UNL1        0.1660
@<TRIPOS>BOND
     1    25    26    1
     2    26    18    1
     3    18    19   ar
     4    19    20   ar
     5    20    21   ar
     6    21    22    1
     7    21    23   ar
     8    23    24   ar
     9    24    12    1
    10    12    13    1
    11    13    14    1
    12    14    15    1
    13    15     5    1
    14     5     6   ar
    15     6     7   ar
    16     7     8   ar
    17     8     1    1
    18     1     2    2
    19     1     3   am
    20     3    27    1
    21    27    38    1
    22    38    39    1
    23    39    40   ar
    24    40    41   ar
    25    41    42   ar
    26    42    43   ar
    27    43    44   ar
    28    44    45   ar
    29    45    46   ar
    30    46    47   ar
    31    27    28    1
    32    28    29    2
    33    28    30   am
    34    30    32    1
    35    32    33   ar
    36    33    34   ar
    37    34    35   ar
    38    35    36   ar
    39    36    37   ar
    40     8     9   ar
    41     9    10    1
    42     9    11   ar
    43    15    16    1
    44    16    17    1
    45    24    18   ar
    46    17    12    1
    47    11     5   ar
    48    47    39   ar
    49    37    32   ar
    50    47    42   ar
    51     3     4    1
    52    41    48    1
    53    30    31    1
@<TRIPOS>MOLECULE
*****
 48 53 0 0 0
SMALL
GASTEIGER

@<TRIPOS>ATOM
      1 C           7.5346   73.5258   22.2667 C.2     1  UNL1        0.2483
      2 O           8.3705   72.8182   21.6439 O.2     1  UNL1       -0.2701
      3 N           6.1339   73.3330   22.0218 N.am    1  UNL1       -0.2945
      4 H           5.8126   72.3512   21.8635 H       1  UNL1        0.1501
      5 C           8.9359   76.2960   25.2310 C.ar    1  UNL1        0.0502
      6 C           7.9922   75.3096   25.5599 C.ar    1  UNL1        0.0148
      7 C           7.5348   74.4155   24.5899 C.ar    1  UNL1        0.0080
      8 C           8.0115   74.4902   23.2738 C.ar    1  UNL1        0.0808
      9 C           8.9806   75.4529   22.9467 C.ar    1  UNL1        0.1457
     10 F           9.4702   75.5403   21.6842 F       1  UNL1       -0.2040
     11 C           9.4313   76.3537   23.9168 C.ar    1  UNL1        0.0443
     12 N           9.8358   78.9355   28.4088 N.pl3   1  UNL1       -0.3017
     13 C           9.6369   79.5551   27.0954 C.3     1  UNL1        0.1123
     14 C           8.8324   78.6135   26.1970 C.3     1  UNL1        0.1122
     15 N           9.3754   77.2447   26.2239 N.pl3   1  UNL1       -0.3040
     16 C          10.4788   76.9034   27.1344 C.3     1  UNL1        0.1122
     17 C          10.2499   77.5299   28.5153 C.3     1  UNL1        0.1123
     18 C           8.7658   79.0716   30.6299 C.ar    1  UNL1        0.1519
     19 C           8.4589   79.8226   31.7822 C.ar    1  UNL1        0.0390
     20 C           8.9063   81.1405   31.9069 C.ar    1  UNL1        0.0146
     21 C           9.6634   81.7239   30.8884 C.ar    1  UNL1        0.0591
     22 CL         10.2262   83.3775   31.0495 Cl      1  UNL1       -0.0822
     23 C           9.9697   80.9900   29.7399 C.ar    1  UNL1        0.0290
     24 C           9.5194   79.6688   29.6015 C.ar    1  UNL1        0.0832
     25 C           7.0178   77.2806   30.6516 C.3     1  UNL1        0.2525
     26 O           8.3552   77.7374   30.4811 O.3     1  UNL1       -0.4702
     27 C           5.2385   74.4052   21.5636 C.3     1  UNL1        0.1535
     28 C           5.9492   75.3456   20.6188 C.2     1  UNL1        0.2443
     29 O           6.3971   74.9188   19.5196 O.2     1  UNL1       -0.2730
     30 N           6.0664   76.7363   20.9667 N.am    1  UNL1       -0.2825
     31 H           5.5542   77.0551   21.8205 H       1  UNL1        0.1549
     32 C           6.7166   77.7450   20.1688 C.ar    1  UNL1        0.0535
     33 C           5.9521   78.4885   19.2576 C.ar    1  UNL1        0.0353
     34 C           6.5577   79.4910   18.4969 C.ar    1  UNL1        0.1002
     35 N           7.8812   79.7568   18.6493 N.ar    1  UNL1       -0.2422
     36 C           8.6472   79.0674   19.5348 C.ar    1  UNL1        0.1002
     37 C           8.0818   78.0544   20.3137 C.ar    1  UNL1        0.0353
     38 C           3.9391   73.8283   20.9597 C.3     1  UNL1        0.0569
     39 C           2.8894   74.8911   20.7870 C.ar    1  UNL1       -0.0017
     40 C           2.0156   75.0205   19.7104 C.ar    1  UNL1        0.0681
     41 N           1.2141   76.0964   19.8778 N.ar    1  UNL1       -0.3523
     42 C           1.5700   76.6459   21.0516 C.ar    1  UNL1        0.0563
     43 C           1.0217   77.7782   21.6526 C.ar    1  UNL1        0.0170
     44 C           1.5434   78.1814   22.8950 C.ar    1  UNL1        0.0015
     45 C           2.5871   77.4504   23.5035 C.ar    1  UNL1        0.0001
     46 C           3.1201   76.3106   22.8749 C.ar    1  UNL1        0.0012
     47 C           2.5876   75.9375   21.6395 C.ar    1  UNL1        0.0131
     48 H           0.4697   76.4286   19.2252 H       1  UNL1        0.1660
@<TRIPOS>BOND
     1    25    26    1
     2    26    18    1
     3    18    19   ar
     4    19    20   ar
     5    20    21   ar
     6    21    22    1
     7    21    23   ar
     8    23    24   ar
     9    24    12    1
    10    12    13    1
    11    13    14    1
    12    14    15    1
    13    15     5    1
    14     5     6   ar
    15     6     7   ar
    16     7     8   ar
    17     8     1    1
    18     1     2    2
    19     1     3   am
    20     3    27    1
    21    27    38    1
    22    38    39    1
    23    39    40   ar
    24    40    41   ar
    25    41    42   ar
    26    42    43   ar
    27    43    44   ar
    28    44    45   ar
    29    45    46   ar
    30    46    47   ar
    31    27    28    1
    32    28    29    2
    33    28    30   am
    34    30    32    1
    35    32    33   ar
    36    33    34   ar
    37    34    35   ar
    38    35    36   ar
    39    36    37   ar
    40     8     9   ar
    41     9    10    1
    42     9    11   ar
    43    15    16    1
    44    16    17    1
    45    24    18   ar
    46    17    12    1
    47    11     5   ar
    48    47    39   ar
    49    37    32   ar
    50    47    42   ar
    51     3     4    1
    52    41    48    1
    53    30    31    1
@<TRIPOS>MOLECULE
*****
 48 53 0 0 0
SMALL
GASTEIGER

@<TRIPOS>ATOM
      1 C           9.8386   76.7978   27.8319 C.2     1  UNL1        0.2483
      2 O          10.8042   76.0075   28.0061 O.2     1  UNL1       -0.2701
      3 N           9.7954   78.0246   28.5749 N.am    1  UNL1       -0.2945
      4 H          10.7062   78.5099   28.7394 H       1  UNL1        0.1501
      5 C           6.8790   75.8544   24.8694 C.ar    1  UNL1        0.0502
      6 C           7.6864   76.9959   24.7390 C.ar    1  UNL1        0.0148
      7 C           8.6428   77.3016   25.7093 C.ar    1  UNL1        0.0080
      8 C           8.8104   76.4729   26.8274 C.ar    1  UNL1        0.0808
      9 C           8.0292   75.3115   26.9463 C.ar    1  UNL1        0.1457
     10 F           8.1785   74.4834   28.0109 F       1  UNL1       -0.2040
     11 C           7.0654   75.0112   25.9786 C.ar    1  UNL1        0.0443
     12 N           4.1410   75.3118   21.6940 N.pl3   1  UNL1       -0.3017
     13 C           3.5740   75.7965   22.9558 C.3     1  UNL1        0.1123
     14 C           4.6759   76.4306   23.8070 C.3     1  UNL1        0.1122
     15 N           5.8636   75.5634   23.8880 N.pl3   1  UNL1       -0.3040
     16 C           5.9276   74.3201   23.1050 C.3     1  UNL1        0.1122
     17 C           5.3979   74.5512   21.6846 C.3     1  UNL1        0.1123
     18 C           4.2044   76.4989   19.5298 C.ar    1  UNL1        0.1519
     19 C           3.5694   76.8485   18.3214 C.ar    1  UNL1        0.0390
     20 C           2.2874   76.3731   18.0333 C.ar    1  UNL1        0.0146
     21 C           1.6251   75.5452   18.9426 C.ar    1  UNL1        0.0591
     22 CL          0.0172   74.9475   18.5765 Cl      1  UNL1       -0.0822
     23 C           2.2436   75.1959   20.1455 C.ar    1  UNL1        0.0290
     24 C           3.5274   75.6737   20.4478 C.ar    1  UNL1        0.0832
     25 C           5.9377   78.2894   19.7615 C.3     1  UNL1        0.2525
     26 O           5.5013   76.9368   19.8417 O.3     1  UNL1       -0.4702
     27 C           8.6775   78.3984   29.4535 C.3     1  UNL1        0.1535
     28 C           9.1233   79.3649   30.5256 C.2     1  UNL1        0.2443
     29 O           9.8314   78.9598   31.4876 O.2     1  UNL1       -0.2730
     30 N           8.7707   80.7546   30.4103 N.am    1  UNL1       -0.2825
     31 H           8.3055   81.0525   29.5228 H       1  UNL1        0.1549
     32 C           9.1224   81.7864   31.3530 C.ar    1  UNL1        0.0535
     33 C           8.7777   81.6208   32.7025 C.ar    1  UNL1        0.0353
     34 C           9.1361   82.5953   33.6365 C.ar    1  UNL1        0.1002
     35 N           9.8306   83.6944   33.2425 N.ar    1  UNL1       -0.2422
     36 C          10.1952   83.8780   31.9466 C.ar    1  UNL1        0.1002
     37 C           9.8543   82.9289   30.9794 C.ar    1  UNL1        0.0353
     38 C           7.4787   78.9301   28.6374 C.3     1  UNL1        0.0569
     39 C           6.3792   77.9089   28.5394 C.ar    1  UNL1       -0.0017
     40 C           5.3431   77.8989   27.6090 C.ar    1  UNL1        0.0681
     41 N           4.5271   76.8417   27.8204 N.ar    1  UNL1       -0.3523
     42 C           5.0396   76.1813   28.8728 C.ar    1  UNL1        0.0563
     43 C           4.5428   75.0193   29.4617 C.ar    1  UNL1        0.0170
     44 C           5.2424   74.4873   30.5597 C.ar    1  UNL1        0.0015
     45 C           6.4115   75.1194   31.0370 C.ar    1  UNL1        0.0001
     46 C           6.8909   76.2901   30.4222 C.ar    1  UNL1        0.0012
     47 C           6.1727   76.7993   29.3388 C.ar    1  UNL1        0.0131
     48 H           3.6733   76.5922   27.2734 H       1  UNL1        0.1660
@<TRIPOS>BOND
     1    25    26    1
     2    26    18    1
     3    18    19   ar
     4    19    20   ar
     5    20    21   ar
     6    21    22    1
     7    21    23   ar
     8    23    24   ar
     9    24    12    1
    10    12    13    1
    11    13    14    1
    12    14    15    1
    13    15     5    1
    14     5     6   ar
    15     6     7   ar
    16     7     8   ar
    17     8     1    1
    18     1     2    2
    19     1     3   am
    20     3    27    1
    21    27    38    1
    22    38    39    1
    23    39    40   ar
    24    40    41   ar
    25    41    42   ar
    26    42    43   ar
    27    43    44   ar
    28    44    45   ar
    29    45    46   ar
    30    46    47   ar
    31    27    28    1
    32    28    29    2
    33    28    30   am
    34    30    32    1
    35    32    33   ar
    36    33    34   ar
    37    34    35   ar
    38    35    36   ar
    39    36    37   ar
    40     8     9   ar
    41     9    10    1
    42     9    11   ar
    43    15    16    1
    44    16    17    1
    45    24    18   ar
    46    17    12    1
    47    11     5   ar
    48    47    39   ar
    49    37    32   ar
    50    47    42   ar
    51     3     4    1
    52    41    48    1
    53    30    31    1
@<TRIPOS>MOLECULE
*****
 48 53 0 0 0
SMALL
GASTEIGER

@<TRIPOS>ATOM
      1 C           8.1899   78.4740   30.6000 C.2     1  UNL1        0.2483
      2 O           9.1533   78.8028   31.3422 O.2     1  UNL1       -0.2701
      3 N           6.9052   78.2263   31.1892 N.am    1  UNL1       -0.2945
      4 H           6.6253   78.8396   31.9877 H       1  UNL1        0.1501
      5 C           8.7815   78.3403   26.3506 C.ar    1  UNL1        0.0502
      6 C           7.8832   79.2561   26.9215 C.ar    1  UNL1        0.0148
      7 C           7.6896   79.2905   28.3039 C.ar    1  UNL1        0.0080
      8 C           8.3896   78.4109   29.1412 C.ar    1  UNL1        0.0808
      9 C           9.3146   77.5156   28.5792 C.ar    1  UNL1        0.1457
     10 F          10.0165   76.6615   29.3661 F       1  UNL1       -0.2040
     11 C           9.5011   77.4758   27.1938 C.ar    1  UNL1        0.0443
     12 N           8.8602   78.4266   22.1243 N.pl3   1  UNL1       -0.3017
     13 C           8.8219   77.0966   22.7394 C.3     1  UNL1        0.1123
     14 C           8.2803   77.2033   24.1664 C.3     1  UNL1        0.1122
     15 N           8.9486   78.2780   24.9197 N.pl3   1  UNL1       -0.3040
     16 C           9.9128   79.1634   24.2493 C.3     1  UNL1        0.1122
     17 C           9.3925   79.5768   22.8673 C.3     1  UNL1        0.1123
     18 C           6.8830   78.5236   20.6485 C.ar    1  UNL1        0.1519
     19 C           6.3400   78.7182   19.3628 C.ar    1  UNL1        0.0390
     20 C           7.1720   79.0273   18.2835 C.ar    1  UNL1        0.0146
     21 C           8.5507   79.1469   18.4720 C.ar    1  UNL1        0.0591
     22 CL          9.5919   79.5382   17.1157 Cl      1  UNL1       -0.0822
     23 C           9.1001   78.9517   19.7415 C.ar    1  UNL1        0.0290
     24 C           8.2747   78.6338   20.8302 C.ar    1  UNL1        0.0832
     25 C           4.7967   77.6158   21.6912 C.3     1  UNL1        0.2525
     26 O           6.0757   78.2370   21.7607 O.3     1  UNL1       -0.4702
     27 C           6.1818   76.9545   31.0454 C.3     1  UNL1        0.1535
     28 C           5.2379   76.9918   29.8665 C.2     1  UNL1        0.2443
     29 O           4.0006   77.1523   30.0517 O.2     1  UNL1       -0.2730
     30 N           5.7717   76.8892   28.5348 N.am    1  UNL1       -0.2825
     31 H           6.8128   76.8998   28.4404 H       1  UNL1        0.1549
     32 C           4.9959   76.9071   27.3204 C.ar    1  UNL1        0.0535
     33 C           5.4948   76.2516   26.1851 C.ar    1  UNL1        0.0353
     34 C           4.7443   76.2318   25.0075 C.ar    1  UNL1        0.1002
     35 N           3.5267   76.8327   24.9649 N.ar    1  UNL1       -0.2422
     36 C           3.0062   77.4618   26.0509 C.ar    1  UNL1        0.1002
     37 C           3.7251   77.5075   27.2483 C.ar    1  UNL1        0.0353
     38 C           7.1587   75.7595   30.9852 C.3     1  UNL1        0.0569
     39 C           6.8447   74.8453   29.8333 C.ar    1  UNL1       -0.0017
     40 C           7.6434   74.6241   28.7142 C.ar    1  UNL1        0.0681
     41 N           7.0468   73.7507   27.8719 N.ar    1  UNL1       -0.3523
     42 C           5.8807   73.4148   28.4496 C.ar    1  UNL1        0.0563
     43 C           4.9179   72.5357   27.9555 C.ar    1  UNL1        0.0170
     44 C           3.7635   72.3214   28.7299 C.ar    1  UNL1        0.0015
     45 C           3.6006   72.9803   29.9682 C.ar    1  UNL1        0.0001
     46 C           4.5894   73.8608   30.4430 C.ar    1  UNL1        0.0012
     47 C           5.7213   74.0595   29.6505 C.ar    1  UNL1        0.0131
     48 H           7.4206   73.4085   26.9589 H       1  UNL1        0.1660
@<TRIPOS>BOND
     1    25    26    1
     2    26    18    1
     3    18    19   ar
     4    19    20   ar
     5    20    21   ar
     6    21    22    1
     7    21    23   ar
     8    23    24   ar
     9    24    12    1
    10    12    13    1
    11    13    14    1
    12    14    15    1
    13    15     5    1
    14     5     6   ar
    15     6     7   ar
    16     7     8   ar
    17     8     1    1
    18     1     2    2
    19     1     3   am
    20     3    27    1
    21    27    38    1
    22    38    39    1
    23    39    40   ar
    24    40    41   ar
    25    41    42   ar
    26    42    43   ar
    27    43    44   ar
    28    44    45   ar
    29    45    46   ar
    30    46    47   ar
    31    27    28    1
    32    28    29    2
    33    28    30   am
    34    30    32    1
    35    32    33   ar
    36    33    34   ar
    37    34    35   ar
    38    35    36   ar
    39    36    37   ar
    40     8     9   ar
    41     9    10    1
    42     9    11   ar
    43    15    16    1
    44    16    17    1
    45    24    18   ar
    46    17    12    1
    47    11     5   ar
    48    47    39   ar
    49    37    32   ar
    50    47    42   ar
    51     3     4    1
    52    41    48    1
    53    30    31    1
@<TRIPOS>MOLECULE
*****
 48 53 0 0 0
SMALL
GASTEIGER

@<TRIPOS>ATOM
      1 C          12.1351   77.1690   24.2618 C.2     1  UNL1        0.2483
      2 O          13.1893   77.0289   23.5863 O.2     1  UNL1       -0.2701
      3 N          12.2051   77.8102   25.5436 N.am    1  UNL1       -0.2945
      4 H          12.8680   78.6130   25.6348 H       1  UNL1        0.1501
      5 C           8.3896   75.9199   22.5775 C.ar    1  UNL1        0.0502
      6 C           8.5674   77.2354   23.0351 C.ar    1  UNL1        0.0148
      7 C           9.7858   77.6343   23.5885 C.ar    1  UNL1        0.0080
      8 C          10.8487   76.7267   23.6948 C.ar    1  UNL1        0.0808
      9 C          10.6881   75.4189   23.2078 C.ar    1  UNL1        0.1457
     10 F          11.7038   74.5224   23.2851 F       1  UNL1       -0.2040
     11 C           9.4646   75.0179   22.6621 C.ar    1  UNL1        0.0443
     12 N           4.7105   75.0464   20.6865 N.pl3   1  UNL1       -0.3017
     13 C           4.6392   75.3629   22.1159 C.3     1  UNL1        0.1123
     14 C           5.8871   76.1430   22.5347 C.3     1  UNL1        0.1122
     15 N           7.1176   75.4986   22.0451 N.pl3   1  UNL1       -0.3040
     16 C           7.0382   74.3244   21.1630 C.3     1  UNL1        0.1122
     17 C           5.9516   74.5233   20.0995 C.3     1  UNL1        0.1123
     18 C           3.6728   76.4189   18.9156 C.ar    1  UNL1        0.1519
     19 C           2.5601   76.7019   18.0985 C.ar    1  UNL1        0.0390
     20 C           1.4021   75.9248   18.1873 C.ar    1  UNL1        0.0146
     21 C           1.3396   74.8591   19.0879 C.ar    1  UNL1        0.0591
     22 CL         -0.1143   73.8835   19.1947 Cl      1  UNL1       -0.0822
     23 C           2.4352   74.5724   19.9058 C.ar    1  UNL1        0.0290
     24 C           3.5998   75.3508   19.8298 C.ar    1  UNL1        0.0832
     25 C           5.0618   78.4321   19.4462 C.3     1  UNL1        0.2525
     26 O           4.8614   77.1617   18.8359 O.3     1  UNL1       -0.4702
     27 C          11.7612   77.1725   26.7916 C.3     1  UNL1        0.1535
     28 C          10.7570   78.0348   27.5199 C.2     1  UNL1        0.2443
     29 O           9.9772   78.7836   26.8700 O.2     1  UNL1       -0.2730
     30 N          10.6709   77.9558   28.9534 N.am    1  UNL1       -0.2825
     31 H          11.2434   77.2170   29.4217 H       1  UNL1        0.1549
     32 C           9.7672   78.7165   29.7790 C.ar    1  UNL1        0.0535
     33 C           8.5500   78.1375   30.1673 C.ar    1  UNL1        0.0353
     34 C           7.6741   78.8468   30.9919 C.ar    1  UNL1        0.1002
     35 N           8.0060   80.0891   31.4304 N.ar    1  UNL1       -0.2422
     36 C           9.1841   80.6726   31.0874 C.ar    1  UNL1        0.1002
     37 C          10.0880   79.9989   30.2618 C.ar    1  UNL1        0.0353
     38 C          11.2376   75.7425   26.5332 C.3     1  UNL1        0.0569
     39 C          10.6093   75.1519   27.7650 C.ar    1  UNL1       -0.0017
     40 C          11.2821   74.5673   28.8351 C.ar    1  UNL1        0.0681
     41 N          10.4033   74.1307   29.7652 N.ar    1  UNL1       -0.3523
     42 C           9.1820   74.4371   29.2955 C.ar    1  UNL1        0.0563
     43 C           7.9555   74.1852   29.9089 C.ar    1  UNL1        0.0170
     44 C           6.7887   74.5973   29.2405 C.ar    1  UNL1        0.0015
     45 C           6.8728   75.2476   27.9898 C.ar    1  UNL1        0.0001
     46 C           8.1241   75.4904   27.3951 C.ar    1  UNL1        0.0012
     47 C           9.2649   75.0646   28.0779 C.ar    1  UNL1        0.0131
     48 H          10.6320   73.6536   30.6655 H       1  UNL1        0.1660
@<TRIPOS>BOND
     1    25    26    1
     2    26    18    1
     3    18    19   ar
     4    19    20   ar
     5    20    21   ar
     6    21    22    1
     7    21    23   ar
     8    23    24   ar
     9    24    12    1
    10    12    13    1
    11    13    14    1
    12    14    15    1
    13    15     5    1
    14     5     6   ar
    15     6     7   ar
    16     7     8   ar
    17     8     1    1
    18     1     2    2
    19     1     3   am
    20     3    27    1
    21    27    38    1
    22    38    39    1
    23    39    40   ar
    24    40    41   ar
    25    41    42   ar
    26    42    43   ar
    27    43    44   ar
    28    44    45   ar
    29    45    46   ar
    30    46    47   ar
    31    27    28    1
    32    28    29    2
    33    28    30   am
    34    30    32    1
    35    32    33   ar
    36    33    34   ar
    37    34    35   ar
    38    35    36   ar
    39    36    37   ar
    40     8     9   ar
    41     9    10    1
    42     9    11   ar
    43    15    16    1
    44    16    17    1
    45    24    18   ar
    46    17    12    1
    47    11     5   ar
    48    47    39   ar
    49    37    32   ar
    50    47    42   ar
    51     3     4    1
    52    41    48    1
    53    30    31    1
