@<TRIPOS>MOLECULE
*****
 48 53 0 0 0
SMALL
GASTEIGER

@<TRIPOS>ATOM
      1 C          11.8027   81.5148   25.3134 C.ar    1  UNL1        0.0702
      2 C          12.6848   82.1043   26.2263 C.ar    1  UNL1        0.0191
      3 C          13.5008   83.1658   25.8326 C.ar    1  UNL1        0.0356
      4 C          13.4426   83.6325   24.5082 C.ar    1  UNL1        0.1318
      5 N          12.5988   83.0213   23.6297 N.ar    1  UNL1       -0.2279
      6 C          11.7926   81.9887   23.9919 C.ar    1  UNL1        0.1149
      7 N          14.2718   84.7268   24.0603 N.pl3   1  UNL1       -0.2932
      8 C          14.2703   85.9932   24.8089 C.3     1  UNL1        0.0923
      9 C          14.5328   87.1644   23.8596 C.3     1  UNL1        0.0252
     10 C          15.8832   87.0225   23.1112 C.3     1  UNL1        0.0472
     11 C          16.3475   85.5501   22.9806 C.3     1  UNL1        0.0252
     12 C          15.1749   84.5645   22.9076 C.3     1  UNL1        0.0923
     13 C          15.8172   87.7034   21.7283 C.3     1  UNL1        0.2054
     14 O          14.5422   87.5035   21.1145 O.3     1  UNL1       -0.4752
     15 C          14.2381   86.5442   20.1312 C.ar    1  UNL1        0.1449
     16 C          15.2466   85.8109   19.4724 C.ar    1  UNL1        0.0435
     17 C          14.9227   84.8446   18.5067 C.ar    1  UNL1        0.0785
     18 C          13.5739   84.6116   18.2020 C.ar    1  UNL1        0.0068
     19 C          12.5676   85.3285   18.8489 C.ar    1  UNL1        0.0097
     20 C          12.8833   86.2956   19.8170 C.ar    1  UNL1        0.1093
     21 C          15.9918   84.0844   17.8203 C.2     1  UNL1        0.3381
     22 O          16.6327   83.1880   18.4334 O.2     1  UNL1       -0.2451
     23 O          16.3005   84.3516   16.4889 O.3     1  UNL1       -0.4771
     24 H          17.0298   83.8368   16.0102 H       1  UNL1        0.2954
     25 C          11.7926   87.0600   20.4720 C.2     1  UNL1        0.3410
     26 O          11.6137   86.9674   21.7154 O.2     1  UNL1       -0.2450
     27 O          10.9510   87.8939   19.7374 O.3     1  UNL1       -0.4770
     28 H          10.9917   87.9465   18.7273 H       1  UNL1        0.2954
     29 C          11.4666   79.0604   25.8682 C.2     1  UNL1        0.2839
     30 O          12.5847   78.7327   25.3874 O.2     1  UNL1       -0.2665
     31 N          10.9851   80.4067   25.7273 N.am    1  UNL1       -0.2766
     32 H           9.9612   80.5767   25.8516 H       1  UNL1        0.1553
     33 C           8.3487   78.5036   25.3759 C.3     1  UNL1        0.0345
     34 C           9.2686   77.8029   26.3299 C.ar    1  UNL1        0.0202
     35 C          10.6296   78.0498   26.5424 C.ar    1  UNL1        0.1946
     36 O          11.1000   77.2265   27.4625 O.2     1  UNL1       -0.4492
     37 C          10.1142   76.4588   27.8582 C.ar    1  UNL1        0.1452
     38 C          10.1618   75.4490   28.8127 C.ar    1  UNL1        0.0375
     39 C           8.9781   74.7418   29.0852 C.ar    1  UNL1        0.0031
     40 C           7.7704   75.0523   28.4034 C.ar    1  UNL1        0.0002
     41 C           7.7651   76.0885   27.4387 C.ar    1  UNL1        0.0028
     42 C           8.9582   76.7700   27.1936 C.ar    1  UNL1        0.0337
     43 C           6.5260   74.2981   28.6995 C.ar    1  UNL1        0.0000
     44 C           5.7494   74.6144   29.8305 C.ar    1  UNL1        0.0000
     45 C           4.5780   73.9025   30.1070 C.ar    1  UNL1        0.0000
     46 C           4.1685   72.8706   29.2599 C.ar    1  UNL1        0.0000
     47 C           4.9297   72.5475   28.1345 C.ar    1  UNL1        0.0000
     48 C           6.1025   73.2554   27.8536 C.ar    1  UNL1        0.0000
@<TRIPOS>BOND
     1    33    34    1
     2    34    35   ar
     3    35    29    1
     4    29    30    2
     5    29    31   am
     6    31     1    1
     7     1     2   ar
     8     2     3   ar
     9     3     4   ar
    10     4     7    1
    11     7     8    1
    12     8     9    1
    13     9    10    1
    14    10    13    1
    15    13    14    1
    16    14    15    1
    17    15    16   ar
    18    16    17   ar
    19    17    21    1
    20    21    22    2
    21    21    23    1
    22    17    18   ar
    23    18    19   ar
    24    19    20   ar
    25    20    25    1
    26    25    26    2
    27    25    27    1
    28    10    11    1
    29    11    12    1
    30     4     5   ar
    31     5     6   ar
    32    35    36   ar
    33    36    37   ar
    34    37    38   ar
    35    38    39   ar
    36    39    40   ar
    37    40    43    1
    38    43    44   ar
    39    44    45   ar
    40    45    46   ar
    41    46    47   ar
    42    47    48   ar
    43    40    41   ar
    44    41    42   ar
    45    42    34   ar
    46     6     1   ar
    47    42    37   ar
    48    12     7    1
    49    48    43   ar
    50    20    15   ar
    51    31    32    1
    52    23    24    1
    53    27    28    1
@<TRIPOS>MOLECULE
*****
 48 53 0 0 0
SMALL
GASTEIGER

@<TRIPOS>ATOM
      1 C           9.9276   79.9326   24.1505 C.ar    1  UNL1        0.0702
      2 C           9.5725   79.8138   22.8019 C.ar    1  UNL1        0.0191
      3 C           8.8583   78.7005   22.3568 C.ar    1  UNL1        0.0356
      4 C           8.5081   77.6899   23.2686 C.ar    1  UNL1        0.1318
      5 N           8.8930   77.8133   24.5701 N.ar    1  UNL1       -0.2279
      6 C           9.5855   78.8901   25.0264 C.ar    1  UNL1        0.1149
      7 N           7.7715   76.5211   22.8480 N.pl3   1  UNL1       -0.2932
      8 C           8.1587   75.8242   21.6117 C.3     1  UNL1        0.0923
      9 C           6.9288   75.1868   20.9613 C.3     1  UNL1        0.0252
     10 C           6.2193   74.1823   21.9054 C.3     1  UNL1        0.0472
     11 C           6.4737   74.4818   23.4042 C.3     1  UNL1        0.0252
     12 C           6.6858   75.9751   23.6811 C.3     1  UNL1        0.0923
     13 C           4.7071   74.1229   21.6051 C.3     1  UNL1        0.2054
     14 O           4.2647   75.3100   20.9439 O.3     1  UNL1       -0.4752
     15 C           3.6742   76.4292   21.5591 C.ar    1  UNL1        0.1449
     16 C           3.2766   76.4091   22.9120 C.ar    1  UNL1        0.0435
     17 C           2.7055   77.5418   23.5136 C.ar    1  UNL1        0.0785
     18 C           2.5343   78.7053   22.7498 C.ar    1  UNL1        0.0068
     19 C           2.9261   78.7382   21.4117 C.ar    1  UNL1        0.0097
     20 C           3.4995   77.6099   20.8032 C.ar    1  UNL1        0.1093
     21 C           2.2896   77.5057   24.9341 C.2     1  UNL1        0.3381
     22 O           3.1087   77.7981   25.8471 O.2     1  UNL1       -0.2451
     23 O           0.9878   77.1486   25.2765 O.3     1  UNL1       -0.4771
     24 H           0.6933   77.1212   26.2453 H       1  UNL1        0.2954
     25 C           3.8850   77.6662   19.3709 C.2     1  UNL1        0.3410
     26 O           3.4607   78.5986   18.6380 O.2     1  UNL1       -0.2450
     27 O           4.7206   76.7028   18.8080 O.3     1  UNL1       -0.4770
     28 H           5.0262   75.8866   19.3230 H       1  UNL1        0.2954
     29 C          12.1173   81.1562   24.5417 C.2     1  UNL1        0.2839
     30 O          12.8060   80.1195   24.3427 O.2     1  UNL1       -0.2665
     31 N          10.6837   81.0741   24.5898 N.am    1  UNL1       -0.2766
     32 H          10.1630   81.8558   25.0487 H       1  UNL1        0.1553
     33 C          12.9931   82.4070   27.3598 C.3     1  UNL1        0.0345
     34 C          13.1696   83.0016   25.9951 C.ar    1  UNL1        0.0202
     35 C          12.7849   82.4524   24.7668 C.ar    1  UNL1        0.1946
     36 O          13.1100   83.2725   23.7832 O.2     1  UNL1       -0.4492
     37 C          13.6852   84.3256   24.3103 C.ar    1  UNL1        0.1452
     38 C          14.1860   85.4370   23.6415 C.ar    1  UNL1        0.0375
     39 C          14.7696   86.4609   24.4074 C.ar    1  UNL1        0.0031
     40 C          14.8439   86.3597   25.8231 C.ar    1  UNL1        0.0002
     41 C          14.3214   85.2111   26.4649 C.ar    1  UNL1        0.0028
     42 C          13.7488   84.2143   25.6734 C.ar    1  UNL1        0.0337
     43 C          15.4630   87.4477   26.6218 C.ar    1  UNL1        0.0000
     44 C          15.0354   87.7007   27.9392 C.ar    1  UNL1        0.0000
     45 C          15.6201   88.7259   28.6891 C.ar    1  UNL1        0.0000
     46 C          16.6362   89.5076   28.1352 C.ar    1  UNL1        0.0000
     47 C          17.0695   89.2664   26.8297 C.ar    1  UNL1        0.0000
     48 C          16.4878   88.2431   26.0748 C.ar    1  UNL1        0.0000
@<TRIPOS>BOND
     1    33    34    1
     2    34    35   ar
     3    35    29    1
     4    29    30    2
     5    29    31   am
     6    31     1    1
     7     1     2   ar
     8     2     3   ar
     9     3     4   ar
    10     4     7    1
    11     7     8    1
    12     8     9    1
    13     9    10    1
    14    10    13    1
    15    13    14    1
    16    14    15    1
    17    15    16   ar
    18    16    17   ar
    19    17    21    1
    20    21    22    2
    21    21    23    1
    22    17    18   ar
    23    18    19   ar
    24    19    20   ar
    25    20    25    1
    26    25    26    2
    27    25    27    1
    28    10    11    1
    29    11    12    1
    30     4     5   ar
    31     5     6   ar
    32    35    36   ar
    33    36    37   ar
    34    37    38   ar
    35    38    39   ar
    36    39    40   ar
    37    40    43    1
    38    43    44   ar
    39    44    45   ar
    40    45    46   ar
    41    46    47   ar
    42    47    48   ar
    43    40    41   ar
    44    41    42   ar
    45    42    34   ar
    46     6     1   ar
    47    42    37   ar
    48    12     7    1
    49    48    43   ar
    50    20    15   ar
    51    31    32    1
    52    23    24    1
    53    27    28    1
@<TRIPOS>MOLECULE
*****
 48 53 0 0 0
SMALL
GASTEIGER

@<TRIPOS>ATOM
      1 C           9.8953   79.8653   24.2162 C.ar    1  UNL1        0.0702
      2 C           9.7253   79.6230   22.8482 C.ar    1  UNL1        0.0191
      3 C           9.0263   78.4959   22.4139 C.ar    1  UNL1        0.0356
      4 C           8.5044   77.5956   23.3585 C.ar    1  UNL1        0.1318
      5 N           8.7106   77.8366   24.6839 N.ar    1  UNL1       -0.2279
      6 C           9.3848   78.9293   25.1296 C.ar    1  UNL1        0.1149
      7 N           7.7771   76.4165   22.9503 N.pl3   1  UNL1       -0.2932
      8 C           8.5051   75.2802   22.3649 C.3     1  UNL1        0.0923
      9 C           7.6126   74.5456   21.3620 C.3     1  UNL1        0.0252
     10 C           6.3041   74.0257   22.0112 C.3     1  UNL1        0.0472
     11 C           5.8858   74.8419   23.2601 C.3     1  UNL1        0.0252
     12 C           6.3261   76.3088   23.1825 C.3     1  UNL1        0.0923
     13 C           5.1606   73.9784   20.9765 C.3     1  UNL1        0.2054
     14 O           4.3638   75.1633   21.0326 O.3     1  UNL1       -0.4752
     15 C           4.3561   76.2015   20.0829 C.ar    1  UNL1        0.1449
     16 C           5.4322   77.1049   19.9618 C.ar    1  UNL1        0.0435
     17 C           5.4144   78.1235   18.9958 C.ar    1  UNL1        0.0785
     18 C           4.3069   78.2341   18.1428 C.ar    1  UNL1        0.0068
     19 C           3.2380   77.3449   18.2512 C.ar    1  UNL1        0.0097
     20 C           3.2489   76.3224   19.2139 C.ar    1  UNL1        0.1093
     21 C           6.5496   79.0672   18.8818 C.2     1  UNL1        0.3381
     22 O           7.6019   78.8845   19.5521 O.2     1  UNL1       -0.2451
     23 O           6.4667   80.1671   18.0317 O.3     1  UNL1       -0.4771
     24 H           7.2379   80.8183   17.9463 H       1  UNL1        0.2954
     25 C           2.0867   75.4054   19.3220 C.2     1  UNL1        0.3410
     26 O           0.9527   75.7707   18.9131 O.2     1  UNL1       -0.2450
     27 O           2.2199   74.1297   19.8680 O.3     1  UNL1       -0.4770
     28 H           3.0839   73.8103   20.2877 H       1  UNL1        0.2954
     29 C          12.0699   81.1207   24.5909 C.2     1  UNL1        0.2839
     30 O          12.7720   80.0933   24.3901 O.2     1  UNL1       -0.2665
     31 N          10.6379   81.0185   24.6482 N.am    1  UNL1       -0.2766
     32 H          10.1091   81.7938   25.1084 H       1  UNL1        0.1553
     33 C          13.0453   82.3427   27.3889 C.3     1  UNL1        0.0345
     34 C          13.1485   82.9634   26.0283 C.ar    1  UNL1        0.0202
     35 C          12.7205   82.4267   24.8089 C.ar    1  UNL1        0.1946
     36 O          12.9846   83.2696   23.8264 O.2     1  UNL1       -0.4492
     37 C          13.5613   84.3258   24.3458 C.ar    1  UNL1        0.1452
     38 C          14.0091   85.4584   23.6750 C.ar    1  UNL1        0.0375
     39 C          14.6055   86.4815   24.4320 C.ar    1  UNL1        0.0031
     40 C          14.7450   86.3585   25.8410 C.ar    1  UNL1        0.0002
     41 C          14.2751   85.1886   26.4852 C.ar    1  UNL1        0.0028
     42 C          13.6881   84.1932   25.7026 C.ar    1  UNL1        0.0337
     43 C          15.3770   87.4458   26.6304 C.ar    1  UNL1        0.0000
     44 C          15.0134   87.6593   27.9738 C.ar    1  UNL1        0.0000
     45 C          15.6102   88.6840   28.7149 C.ar    1  UNL1        0.0000
     46 C          16.5747   89.5046   28.1261 C.ar    1  UNL1        0.0000
     47 C          16.9444   89.3028   26.7946 C.ar    1  UNL1        0.0000
     48 C          16.3503   88.2801   26.0485 C.ar    1  UNL1        0.0000
@<TRIPOS>BOND
     1    33    34    1
     2    34    35   ar
     3    35    29    1
     4    29    30    2
     5    29    31   am
     6    31     1    1
     7     1     2   ar
     8     2     3   ar
     9     3     4   ar
    10     4     7    1
    11     7     8    1
    12     8     9    1
    13     9    10    1
    14    10    13    1
    15    13    14    1
    16    14    15    1
    17    15    16   ar
    18    16    17   ar
    19    17    21    1
    20    21    22    2
    21    21    23    1
    22    17    18   ar
    23    18    19   ar
    24    19    20   ar
    25    20    25    1
    26    25    26    2
    27    25    27    1
    28    10    11    1
    29    11    12    1
    30     4     5   ar
    31     5     6   ar
    32    35    36   ar
    33    36    37   ar
    34    37    38   ar
    35    38    39   ar
    36    39    40   ar
    37    40    43    1
    38    43    44   ar
    39    44    45   ar
    40    45    46   ar
    41    46    47   ar
    42    47    48   ar
    43    40    41   ar
    44    41    42   ar
    45    42    34   ar
    46     6     1   ar
    47    42    37   ar
    48    12     7    1
    49    48    43   ar
    50    20    15   ar
    51    31    32    1
    52    23    24    1
    53    27    28    1
@<TRIPOS>MOLECULE
*****
 48 53 0 0 0
SMALL
GASTEIGER

@<TRIPOS>ATOM
      1 C           9.9818   79.7132   24.1747 C.ar    1  UNL1        0.0702
      2 C           9.4213   78.8780   25.1479 C.ar    1  UNL1        0.0191
      3 C           8.6971   77.7458   24.7723 C.ar    1  UNL1        0.0356
      4 C           8.5208   77.4547   23.4087 C.ar    1  UNL1        0.1318
      5 N           9.0491   78.3006   22.4799 N.ar    1  UNL1       -0.2279
      6 C           9.7610   79.4066   22.8226 C.ar    1  UNL1        0.1149
      7 N           7.7763   76.2945   22.9784 N.pl3   1  UNL1       -0.2932
      8 C           8.2822   75.4789   21.8636 C.3     1  UNL1        0.0923
      9 C           7.1137   74.8539   21.0980 C.3     1  UNL1        0.0252
     10 C           6.2227   73.9685   22.0069 C.3     1  UNL1        0.0472
     11 C           6.2915   74.3772   23.4998 C.3     1  UNL1        0.0252
     12 C           6.5567   75.8756   23.6911 C.3     1  UNL1        0.0923
     13 C           4.7639   73.9620   21.5047 C.3     1  UNL1        0.2054
     14 O           4.0081   75.0187   22.1000 O.3     1  UNL1       -0.4752
     15 C           3.7540   76.2788   21.5279 C.ar    1  UNL1        0.1449
     16 C           4.1010   76.5716   20.1928 C.ar    1  UNL1        0.0435
     17 C           3.8230   77.8291   19.6337 C.ar    1  UNL1        0.0785
     18 C           3.1890   78.8000   20.4223 C.ar    1  UNL1        0.0068
     19 C           2.8384   78.5212   21.7431 C.ar    1  UNL1        0.0097
     20 C           3.1118   77.2654   22.3091 C.ar    1  UNL1        0.1093
     21 C           4.1958   78.1241   18.2316 C.2     1  UNL1        0.3381
     22 O           4.3190   77.1903   17.3933 O.2     1  UNL1       -0.2451
     23 O           4.4140   79.4377   17.8237 O.3     1  UNL1       -0.4771
     24 H           4.6690   79.6501   16.8667 H       1  UNL1        0.2954
     25 C           2.7489   77.0049   23.7246 C.2     1  UNL1        0.3410
     26 O           1.5667   77.1890   24.1185 O.2     1  UNL1       -0.2450
     27 O           3.6947   76.5507   24.6424 O.3     1  UNL1       -0.4770
     28 H           4.6754   76.4629   24.4073 H       1  UNL1        0.2954
     29 C          12.1358   81.0131   24.5155 C.2     1  UNL1        0.2839
     30 O          12.8544   79.9926   24.3400 O.2     1  UNL1       -0.2665
     31 N          10.7057   80.8890   24.5766 N.am    1  UNL1       -0.2766
     32 H          10.1645   81.6670   25.0177 H       1  UNL1        0.1553
     33 C          13.2244   82.2614   27.2595 C.3     1  UNL1        0.0345
     34 C          13.2423   82.8830   25.8955 C.ar    1  UNL1        0.0202
     35 C          12.7650   82.3347   24.6997 C.ar    1  UNL1        0.1946
     36 O          12.9577   83.1826   23.7050 O.2     1  UNL1       -0.4492
     37 C          13.5347   84.2529   24.1940 C.ar    1  UNL1        0.1452
     38 C          13.9198   85.3952   23.5011 C.ar    1  UNL1        0.0375
     39 C          14.5296   86.4333   24.2265 C.ar    1  UNL1        0.0031
     40 C          14.7446   86.3153   25.6264 C.ar    1  UNL1        0.0002
     41 C          14.3370   85.1352   26.2938 C.ar    1  UNL1        0.0028
     42 C          13.7345   84.1250   25.5425 C.ar    1  UNL1        0.0337
     43 C          15.3901   87.4185   26.3823 C.ar    1  UNL1        0.0000
     44 C          14.9773   87.7253   27.6930 C.ar    1  UNL1        0.0000
     45 C          15.5869   88.7647   28.4024 C.ar    1  UNL1        0.0000
     46 C          16.6132   89.5072   27.8145 C.ar    1  UNL1        0.0000
     47 C          17.0320   89.2124   26.5153 C.ar    1  UNL1        0.0000
     48 C          16.4255   88.1746   25.8007 C.ar    1  UNL1        0.0000
@<TRIPOS>BOND
     1    33    34    1
     2    34    35   ar
     3    35    29    1
     4    29    30    2
     5    29    31   am
     6    31     1    1
     7     1     2   ar
     8     2     3   ar
     9     3     4   ar
    10     4     7    1
    11     7     8    1
    12     8     9    1
    13     9    10    1
    14    10    13    1
    15    13    14    1
    16    14    15    1
    17    15    16   ar
    18    16    17   ar
    19    17    21    1
    20    21    22    2
    21    21    23    1
    22    17    18   ar
    23    18    19   ar
    24    19    20   ar
    25    20    25    1
    26    25    26    2
    27    25    27    1
    28    10    11    1
    29    11    12    1
    30     4     5   ar
    31     5     6   ar
    32    35    36   ar
    33    36    37   ar
    34    37    38   ar
    35    38    39   ar
    36    39    40   ar
    37    40    43    1
    38    43    44   ar
    39    44    45   ar
    40    45    46   ar
    41    46    47   ar
    42    47    48   ar
    43    40    41   ar
    44    41    42   ar
    45    42    34   ar
    46     6     1   ar
    47    42    37   ar
    48    12     7    1
    49    48    43   ar
    50    20    15   ar
    51    31    32    1
    52    23    24    1
    53    27    28    1
@<TRIPOS>MOLECULE
*****
 48 53 0 0 0
SMALL
GASTEIGER

@<TRIPOS>ATOM
      1 C          10.5597   81.1725   25.0806 C.ar    1  UNL1        0.0702
      2 C          10.1964   80.3874   23.9804 C.ar    1  UNL1        0.0191
      3 C           9.4922   79.1970   24.1661 C.ar    1  UNL1        0.0356
      4 C           9.1604   78.7819   25.4672 C.ar    1  UNL1        0.1318
      5 N           9.5531   79.5474   26.5242 N.ar    1  UNL1       -0.2279
      6 C          10.2362   80.7119   26.3668 C.ar    1  UNL1        0.1149
      7 N           8.4346   77.5558   25.7023 N.pl3   1  UNL1       -0.2932
      8 C           6.9760   77.5273   25.5136 C.3     1  UNL1        0.0923
      9 C           6.3424   76.5166   26.4724 C.3     1  UNL1        0.0252
     10 C           6.9047   75.0856   26.2729 C.3     1  UNL1        0.0472
     11 C           8.3294   75.0779   25.6640 C.3     1  UNL1        0.0252
     12 C           9.1466   76.3151   26.0555 C.3     1  UNL1        0.0923
     13 C           6.8675   74.2932   27.5963 C.3     1  UNL1        0.2054
     14 O           6.0961   74.9768   28.5861 O.3     1  UNL1       -0.4752
     15 C           6.5221   76.0759   29.3543 C.ar    1  UNL1        0.1449
     16 C           7.8344   76.5836   29.2600 C.ar    1  UNL1        0.0435
     17 C           8.2359   77.6927   30.0214 C.ar    1  UNL1        0.0785
     18 C           7.3102   78.2983   30.8833 C.ar    1  UNL1        0.0068
     19 C           6.0088   77.8070   30.9831 C.ar    1  UNL1        0.0097
     20 C           5.5991   76.6989   30.2238 C.ar    1  UNL1        0.1093
     21 C           9.6178   78.2133   29.9150 C.2     1  UNL1        0.3381
     22 O          10.0634   79.0227   30.7730 O.2     1  UNL1       -0.2451
     23 O          10.4407   77.8133   28.8650 O.3     1  UNL1       -0.4771
     24 H          11.3877   78.1634   28.7835 H       1  UNL1        0.2954
     25 C           4.2148   76.1831   30.3681 C.2     1  UNL1        0.3410
     26 O           3.2650   76.9773   30.6001 O.2     1  UNL1       -0.2450
     27 O           3.9330   74.8232   30.2475 O.3     1  UNL1       -0.4770
     28 H           4.6619   74.1286   30.1438 H       1  UNL1        0.2954
     29 C          12.7402   82.4594   24.8944 C.2     1  UNL1        0.2839
     30 O          13.4196   81.4994   25.3476 O.2     1  UNL1       -0.2665
     31 N          11.3055   82.3847   24.8752 N.am    1  UNL1       -0.2766
     32 H          10.7691   83.2780   24.7905 H       1  UNL1        0.1553
     33 C          15.5151   82.6274   23.2992 C.3     1  UNL1        0.0345
     34 C          14.6274   83.7590   23.7219 C.ar    1  UNL1        0.0202
     35 C          13.4166   83.6813   24.4192 C.ar    1  UNL1        0.1946
     36 O          12.9251   84.8931   24.6079 O.2     1  UNL1       -0.4492
     37 C          13.7550   85.7528   24.0695 C.ar    1  UNL1        0.1452
     38 C          13.6305   87.1372   24.0340 C.ar    1  UNL1        0.0375
     39 C          14.6437   87.8751   23.3980 C.ar    1  UNL1        0.0031
     40 C          15.7607   87.2222   22.8098 C.ar    1  UNL1        0.0002
     41 C          15.8492   85.8105   22.8686 C.ar    1  UNL1        0.0028
     42 C          14.8254   85.1097   23.5080 C.ar    1  UNL1        0.0337
     43 C          16.8250   88.0122   22.1404 C.ar    1  UNL1        0.0000
     44 C          18.1012   88.1319   22.7229 C.ar    1  UNL1        0.0000
     45 C          19.1016   88.8765   22.0904 C.ar    1  UNL1        0.0000
     46 C          18.8412   89.5076   20.8721 C.ar    1  UNL1        0.0000
     47 C          17.5796   89.3961   20.2838 C.ar    1  UNL1        0.0000
     48 C          16.5751   88.6535   20.9122 C.ar    1  UNL1        0.0000
@<TRIPOS>BOND
     1    33    34    1
     2    34    35   ar
     3    35    29    1
     4    29    30    2
     5    29    31   am
     6    31     1    1
     7     1     2   ar
     8     2     3   ar
     9     3     4   ar
    10     4     7    1
    11     7     8    1
    12     8     9    1
    13     9    10    1
    14    10    13    1
    15    13    14    1
    16    14    15    1
    17    15    16   ar
    18    16    17   ar
    19    17    21    1
    20    21    22    2
    21    21    23    1
    22    17    18   ar
    23    18    19   ar
    24    19    20   ar
    25    20    25    1
    26    25    26    2
    27    25    27    1
    28    10    11    1
    29    11    12    1
    30     4     5   ar
    31     5     6   ar
    32    35    36   ar
    33    36    37   ar
    34    37    38   ar
    35    38    39   ar
    36    39    40   ar
    37    40    43    1
    38    43    44   ar
    39    44    45   ar
    40    45    46   ar
    41    46    47   ar
    42    47    48   ar
    43    40    41   ar
    44    41    42   ar
    45    42    34   ar
    46     6     1   ar
    47    42    37   ar
    48    12     7    1
    49    48    43   ar
    50    20    15   ar
    51    31    32    1
    52    23    24    1
    53    27    28    1
