@<TRIPOS>MOLECULE
*****
 43 48 0 0 0
SMALL
GASTEIGER

@<TRIPOS>ATOM
      1 N         -30.4386   48.7973  -10.6927 N.ar    1  UNL1       -0.2357
      2 N         -31.4669   48.4945   -9.9038 N.ar    1  UNL1       -0.1663
      3 C         -31.2218   49.0000   -8.6681 C.ar    1  UNL1        0.1260
      4 C         -29.9908   49.6257   -8.6934 C.ar    1  UNL1        0.0880
      5 C         -29.1910   50.2443   -7.7377 C.ar    1  UNL1        0.1380
      6 N         -27.9469   50.6531   -8.1311 N.ar    1  UNL1       -0.2117
      7 C         -27.4952   50.4798   -9.4179 C.ar    1  UNL1        0.1653
      8 N         -28.3007   49.8711  -10.3436 N.ar    1  UNL1       -0.2079
      9 C         -29.5341   49.4652   -9.9590 C.ar    1  UNL1        0.1652
     10 C         -30.4937   46.2124  -15.7007 C.2     1  UNL1        0.4050
     11 O         -30.0454   45.0373  -15.8074 O.2     1  UNL1       -0.2262
     12 N         -30.7447   46.7808  -14.4016 N.am    1  UNL1       -0.2459
     13 C         -30.5101   46.0019  -13.1751 C.3     1  UNL1        0.0987
     14 C         -29.8208   46.8545  -12.0951 C.3     1  UNL1        0.0461
     15 C         -30.2809   48.3337  -12.0745 C.3     1  UNL1        0.1102
     16 C         -31.5774   48.5538  -12.8693 C.3     1  UNL1        0.0461
     17 C         -31.3810   48.1046  -14.3218 C.3     1  UNL1        0.0987
     18 C         -29.8081   47.1037  -17.9070 C.3     1  UNL1        0.2573
     19 O         -30.7505   46.9684  -16.8502 O.3     1  UNL1       -0.4304
     20 N         -29.6223   50.4205   -6.3795 N.pl3   1  UNL1       -0.2879
     21 C         -29.8963   51.7672   -5.8714 C.3     1  UNL1        0.1242
     22 C         -30.8594   51.6785   -4.6845 C.3     1  UNL1        0.1636
     23 O         -30.3687   50.7792   -3.7074 O.3     1  UNL1       -0.3501
     24 C         -30.3289   49.4673   -4.2383 C.3     1  UNL1        0.1636
     25 C         -29.3291   49.3764   -5.3961 C.3     1  UNL1        0.1242
     26 C         -26.1368   50.9385   -9.7990 C.ar    1  UNL1        0.0360
     27 C         -25.2717   51.4928   -8.8380 C.ar    1  UNL1        0.0043
     28 C         -23.9919   51.9236   -9.1987 C.ar    1  UNL1        0.0148
     29 C         -23.5428   51.7963  -10.5199 C.ar    1  UNL1        0.0516
     30 C         -24.4114   51.2648  -11.4880 C.ar    1  UNL1        0.0148
     31 C         -25.6923   50.8343  -11.1299 C.ar    1  UNL1        0.0043
     32 N         -22.2293   52.2681  -10.8669 N.am    1  UNL1       -0.2681
     33 C         -21.0884   52.1863   -9.9991 C.2     1  UNL1        0.3082
     34 O         -21.2399   51.9231   -8.7749 O.2     1  UNL1       -0.2522
     35 N         -19.7837   52.4886  -10.5168 N.am    1  UNL1       -0.2681
     36 H         -22.1120   52.7692  -11.7766 H       1  UNL1        0.1564
     37 H         -19.7290   52.9839  -11.4354 H       1  UNL1        0.1564
     38 C         -18.5571   52.2453   -9.8067 C.ar    1  UNL1        0.0516
     39 C         -17.4411   51.7602  -10.5070 C.ar    1  UNL1        0.0147
     40 C         -16.2438   51.4948   -9.8352 C.ar    1  UNL1        0.0013
     41 C         -16.1553   51.6971   -8.4557 C.ar    1  UNL1        0.0001
     42 C         -17.2667   52.1573   -7.7449 C.ar    1  UNL1        0.0013
     43 C         -18.4658   52.4247   -8.4133 C.ar    1  UNL1        0.0147
@<TRIPOS>BOND
     1    18    19    1
     2    19    10    1
     3    10    11    2
     4    10    12   am
     5    12    13    1
     6    13    14    1
     7    14    15    1
     8    15     1    1
     9     1     2   ar
    10     2     3   ar
    11     3     4   ar
    12     4     5   ar
    13     5    20    1
    14    20    21    1
    15    21    22    1
    16    22    23    1
    17    23    24    1
    18    24    25    1
    19     5     6   ar
    20     6     7   ar
    21     7    26    1
    22    26    27   ar
    23    27    28   ar
    24    28    29   ar
    25    29    32    1
    26    32    33   am
    27    33    34    2
    28    33    35   am
    29    35    38    1
    30    38    39   ar
    31    39    40   ar
    32    40    41   ar
    33    41    42   ar
    34    42    43   ar
    35    29    30   ar
    36    30    31   ar
    37     7     8   ar
    38     8     9   ar
    39    15    16    1
    40    16    17    1
    41    17    12    1
    42     9     1   ar
    43     9     4   ar
    44    25    20    1
    45    31    26   ar
    46    43    38   ar
    47    32    36    1
    48    35    37    1
@<TRIPOS>MOLECULE
*****
 43 48 0 0 0
SMALL
GASTEIGER

@<TRIPOS>ATOM
      1 N         -30.6741   48.7986   -9.7100 N.ar    1  UNL1       -0.2357
      2 N         -31.4879   48.2705   -8.7988 N.ar    1  UNL1       -0.1663
      3 C         -30.8928   48.3721   -7.5831 C.ar    1  UNL1        0.1260
      4 C         -29.6609   48.9727   -7.7536 C.ar    1  UNL1        0.0880
      5 C         -28.5937   49.2666   -6.9108 C.ar    1  UNL1        0.1380
      6 N         -27.4618   49.7738   -7.4863 N.ar    1  UNL1       -0.2117
      7 C         -27.3709   50.0027   -8.8388 C.ar    1  UNL1        0.1653
      8 N         -28.4351   49.7090   -9.6497 N.ar    1  UNL1       -0.2079
      9 C         -29.5587   49.2074   -9.0843 C.ar    1  UNL1        0.1652
     10 C         -30.5954   49.1299  -15.3357 C.2     1  UNL1        0.4050
     11 O         -30.4673   50.2525  -15.8984 O.2     1  UNL1       -0.2262
     12 N         -30.3412   48.9890  -13.9252 N.am    1  UNL1       -0.2459
     13 C         -29.9043   50.1376  -13.1153 C.3     1  UNL1        0.0987
     14 C         -30.6382   50.1791  -11.7633 C.3     1  UNL1        0.0461
     15 C         -30.9151   48.7810  -11.1559 C.3     1  UNL1        0.1102
     16 C         -30.0849   47.6767  -11.8284 C.3     1  UNL1        0.0461
     17 C         -30.3820   47.6437  -13.3320 C.3     1  UNL1        0.0987
     18 C         -30.3577   47.6542  -17.3101 C.3     1  UNL1        0.2573
     19 O         -30.9850   48.0139  -16.0852 O.3     1  UNL1       -0.4304
     20 N         -28.6464   49.0185   -5.4975 N.pl3   1  UNL1       -0.2879
     21 C         -29.5245   49.8278   -4.6484 C.3     1  UNL1        0.1242
     22 C         -29.8618   49.0487   -3.3743 C.3     1  UNL1        0.1636
     23 O         -28.6812   48.6054   -2.7309 O.3     1  UNL1       -0.3501
     24 C         -28.0054   47.6735   -3.5552 C.3     1  UNL1        0.1636
     25 C         -27.5241   48.3373   -4.8497 C.3     1  UNL1        0.1242
     26 C         -26.1215   50.5533   -9.4191 C.ar    1  UNL1        0.0360
     27 C         -25.9210   50.5614  -10.8115 C.ar    1  UNL1        0.0043
     28 C         -24.7437   51.0813  -11.3567 C.ar    1  UNL1        0.0148
     29 C         -23.7500   51.6178  -10.5270 C.ar    1  UNL1        0.0516
     30 C         -23.9355   51.5908   -9.1345 C.ar    1  UNL1        0.0148
     31 C         -25.1117   51.0702   -8.5869 C.ar    1  UNL1        0.0043
     32 N         -22.5395   52.1259  -11.1140 N.am    1  UNL1       -0.2681
     33 C         -21.2470   52.0435  -10.4941 C.2     1  UNL1        0.3082
     34 O         -21.1469   51.7433   -9.2731 O.2     1  UNL1       -0.2522
     35 N         -20.0767   52.3869  -11.2518 N.am    1  UNL1       -0.2681
     36 H         -22.6137   52.6545  -12.0126 H       1  UNL1        0.1564
     37 H         -20.2141   52.9086  -12.1469 H       1  UNL1        0.1564
     38 C         -18.7295   52.1492  -10.8085 C.ar    1  UNL1        0.0516
     39 C         -17.6954   52.0805  -11.7557 C.ar    1  UNL1        0.0147
     40 C         -16.3806   51.8285  -11.3519 C.ar    1  UNL1        0.0013
     41 C         -16.0896   51.6279  -10.0003 C.ar    1  UNL1        0.0001
     42 C         -17.1145   51.6708   -9.0517 C.ar    1  UNL1        0.0013
     43 C         -18.4307   51.9234   -9.4514 C.ar    1  UNL1        0.0147
@<TRIPOS>BOND
     1    18    19    1
     2    19    10    1
     3    10    11    2
     4    10    12   am
     5    12    13    1
     6    13    14    1
     7    14    15    1
     8    15     1    1
     9     1     2   ar
    10     2     3   ar
    11     3     4   ar
    12     4     5   ar
    13     5    20    1
    14    20    21    1
    15    21    22    1
    16    22    23    1
    17    23    24    1
    18    24    25    1
    19     5     6   ar
    20     6     7   ar
    21     7    26    1
    22    26    27   ar
    23    27    28   ar
    24    28    29   ar
    25    29    32    1
    26    32    33   am
    27    33    34    2
    28    33    35   am
    29    35    38    1
    30    38    39   ar
    31    39    40   ar
    32    40    41   ar
    33    41    42   ar
    34    42    43   ar
    35    29    30   ar
    36    30    31   ar
    37     7     8   ar
    38     8     9   ar
    39    15    16    1
    40    16    17    1
    41    17    12    1
    42     9     1   ar
    43     9     4   ar
    44    25    20    1
    45    31    26   ar
    46    43    38   ar
    47    32    36    1
    48    35    37    1
@<TRIPOS>MOLECULE
*****
 43 48 0 0 0
SMALL
GASTEIGER

@<TRIPOS>ATOM
      1 N         -29.0593   47.9006   -8.1200 N.ar    1  UNL1       -0.2357
      2 N         -30.3327   47.7690   -8.4845 N.ar    1  UNL1       -0.1663
      3 C         -30.5422   48.5287   -9.5897 C.ar    1  UNL1        0.1260
      4 C         -29.3575   49.1622   -9.9099 C.ar    1  UNL1        0.0880
      5 C         -28.9800   50.1003  -10.8654 C.ar    1  UNL1        0.1380
      6 N         -27.7060   50.5913  -10.7926 N.ar    1  UNL1       -0.2117
      7 C         -26.8178   50.1752   -9.8292 C.ar    1  UNL1        0.1653
      8 N         -27.2097   49.2481   -8.9001 N.ar    1  UNL1       -0.2079
      9 C         -28.4703   48.7581   -8.9687 C.ar    1  UNL1        0.1652
     10 C         -27.7026   46.0344   -2.9779 C.2     1  UNL1        0.4050
     11 O         -27.5422   46.8551   -2.0325 O.2     1  UNL1       -0.2262
     12 N         -28.3132   46.4556   -4.2123 N.am    1  UNL1       -0.2459
     13 C         -28.7852   47.8380   -4.3914 C.3     1  UNL1        0.0987
     14 C         -28.4091   48.3810   -5.7814 C.3     1  UNL1        0.0461
     15 C         -28.4729   47.3199   -6.9084 C.3     1  UNL1        0.1102
     16 C         -29.2462   46.0618   -6.4836 C.3     1  UNL1        0.0461
     17 C         -28.5936   45.4433   -5.2420 C.3     1  UNL1        0.0987
     18 C         -25.9246   44.3113   -2.9351 C.3     1  UNL1        0.2573
     19 O         -27.2867   44.7065   -2.8274 O.3     1  UNL1       -0.4304
     20 N         -29.8890   50.5739  -11.8709 N.pl3   1  UNL1       -0.2879
     21 C         -30.0970   49.7906  -13.0917 C.3     1  UNL1        0.1242
     22 C         -31.4598   50.1399  -13.6959 C.3     1  UNL1        0.1636
     23 O         -31.5840   51.5385  -13.8767 O.3     1  UNL1       -0.3501
     24 C         -31.5697   52.1889  -12.6191 C.3     1  UNL1        0.1636
     25 C         -30.2187   51.9994  -11.9212 C.3     1  UNL1        0.1242
     26 C         -25.4454   50.7370   -9.7883 C.ar    1  UNL1        0.0360
     27 C         -24.7319   50.7980   -8.5774 C.ar    1  UNL1        0.0043
     28 C         -23.4386   51.3268   -8.5408 C.ar    1  UNL1        0.0148
     29 C         -22.8246   51.7905   -9.7119 C.ar    1  UNL1        0.0516
     30 C         -23.5418   51.7531  -10.9196 C.ar    1  UNL1        0.0148
     31 C         -24.8358   51.2258  -10.9585 C.ar    1  UNL1        0.0043
     32 N         -21.5015   52.3496   -9.6408 N.am    1  UNL1       -0.2681
     33 C         -21.2216   53.7171   -9.3046 C.2     1  UNL1        0.3082
     34 O         -22.1486   54.5725   -9.3023 O.2     1  UNL1       -0.2522
     35 N         -19.8664   54.1198   -9.0533 N.am    1  UNL1       -0.2681
     36 H         -20.6971   51.7451   -9.9236 H       1  UNL1        0.1564
     37 H         -19.1041   53.4700   -9.3511 H       1  UNL1        0.1564
     38 C         -19.4913   55.3989   -8.5136 C.ar    1  UNL1        0.0516
     39 C         -18.7376   55.4522   -7.3302 C.ar    1  UNL1        0.0147
     40 C         -18.3792   56.6838   -6.7735 C.ar    1  UNL1        0.0013
     41 C         -18.7834   57.8729   -7.3856 C.ar    1  UNL1        0.0001
     42 C         -19.5535   57.8317   -8.5507 C.ar    1  UNL1        0.0013
     43 C         -19.9133   56.6018   -9.1110 C.ar    1  UNL1        0.0147
@<TRIPOS>BOND
     1    18    19    1
     2    19    10    1
     3    10    11    2
     4    10    12   am
     5    12    13    1
     6    13    14    1
     7    14    15    1
     8    15     1    1
     9     1     2   ar
    10     2     3   ar
    11     3     4   ar
    12     4     5   ar
    13     5    20    1
    14    20    21    1
    15    21    22    1
    16    22    23    1
    17    23    24    1
    18    24    25    1
    19     5     6   ar
    20     6     7   ar
    21     7    26    1
    22    26    27   ar
    23    27    28   ar
    24    28    29   ar
    25    29    32    1
    26    32    33   am
    27    33    34    2
    28    33    35   am
    29    35    38    1
    30    38    39   ar
    31    39    40   ar
    32    40    41   ar
    33    41    42   ar
    34    42    43   ar
    35    29    30   ar
    36    30    31   ar
    37     7     8   ar
    38     8     9   ar
    39    15    16    1
    40    16    17    1
    41    17    12    1
    42     9     1   ar
    43     9     4   ar
    44    25    20    1
    45    31    26   ar
    46    43    38   ar
    47    32    36    1
    48    35    37    1
@<TRIPOS>MOLECULE
*****
 43 48 0 0 0
SMALL
GASTEIGER

@<TRIPOS>ATOM
      1 N         -29.6609   47.8460   -8.2248 N.ar    1  UNL1       -0.2357
      2 N         -30.8836   47.6990   -8.7297 N.ar    1  UNL1       -0.1663
      3 C         -30.9785   48.4601   -9.8496 C.ar    1  UNL1        0.1260
      4 C         -29.7742   49.1105  -10.0337 C.ar    1  UNL1        0.0880
      5 C         -29.3050   50.0572  -10.9389 C.ar    1  UNL1        0.1380
      6 N         -28.0539   50.5648  -10.7228 N.ar    1  UNL1       -0.2117
      7 C         -27.2734   50.1567   -9.6672 C.ar    1  UNL1        0.1653
      8 N         -27.7541   49.2208   -8.7899 N.ar    1  UNL1       -0.2079
      9 C         -28.9924   48.7146   -9.0002 C.ar    1  UNL1        0.1652
     10 C         -28.9595   45.3964   -3.1977 C.2     1  UNL1        0.4050
     11 O         -29.5059   45.8928   -2.1738 O.2     1  UNL1       -0.2262
     12 N         -29.3456   45.8345   -4.5140 N.am    1  UNL1       -0.2459
     13 C         -30.3978   46.8470   -4.6977 C.3     1  UNL1        0.0987
     14 C         -30.0035   47.8735   -5.7743 C.3     1  UNL1        0.0461
     15 C         -29.2058   47.2684   -6.9566 C.3     1  UNL1        0.1102
     16 C         -29.2956   45.7350   -6.9984 C.3     1  UNL1        0.0461
     17 C         -28.7752   45.1463   -5.6822 C.3     1  UNL1        0.0987
     18 C         -26.7032   44.6782   -2.4725 C.3     1  UNL1        0.2573
     19 O         -27.9735   44.4133   -3.0551 O.3     1  UNL1       -0.4304
     20 N         -30.1023   50.5227  -12.0386 N.pl3   1  UNL1       -0.2879
     21 C         -30.2984   49.6648  -13.2102 C.3     1  UNL1        0.1242
     22 C         -31.5836   50.0758  -13.9339 C.3     1  UNL1        0.1636
     23 O         -31.5732   51.4612  -14.2253 O.3     1  UNL1       -0.3501
     24 C         -31.5836   52.2058  -13.0212 C.3     1  UNL1        0.1636
     25 C         -30.3023   51.9619  -12.2168 C.3     1  UNL1        0.1242
     26 C         -25.9219   50.7364   -9.4717 C.ar    1  UNL1        0.0360
     27 C         -25.3385   50.7786   -8.1923 C.ar    1  UNL1        0.0043
     28 C         -24.0648   51.3244   -8.0100 C.ar    1  UNL1        0.0148
     29 C         -23.3406   51.8242   -9.1006 C.ar    1  UNL1        0.0516
     30 C         -23.9283   51.8054  -10.3766 C.ar    1  UNL1        0.0148
     31 C         -25.2027   51.2611  -10.5612 C.ar    1  UNL1        0.0043
     32 N         -22.0412   52.3998   -8.8803 N.am    1  UNL1       -0.2681
     33 C         -20.8202   51.8582   -9.4070 C.2     1  UNL1        0.3082
     34 O         -20.7979   50.6913   -9.8852 O.2     1  UNL1       -0.2522
     35 N         -19.6083   52.6220   -9.3088 N.am    1  UNL1       -0.2681
     36 H         -21.9702   53.2197   -8.2360 H       1  UNL1        0.1564
     37 H         -19.5996   53.4361   -8.6537 H       1  UNL1        0.1564
     38 C         -18.3810   52.2776   -9.9746 C.ar    1  UNL1        0.0516
     39 C         -18.3229   52.3220  -11.3767 C.ar    1  UNL1        0.0147
     40 C         -17.1478   51.9706  -12.0484 C.ar    1  UNL1        0.0013
     41 C         -16.0255   51.5573  -11.3263 C.ar    1  UNL1        0.0001
     42 C         -16.0796   51.4869   -9.9319 C.ar    1  UNL1        0.0013
     43 C         -17.2526   51.8384   -9.2564 C.ar    1  UNL1        0.0147
@<TRIPOS>BOND
     1    18    19    1
     2    19    10    1
     3    10    11    2
     4    10    12   am
     5    12    13    1
     6    13    14    1
     7    14    15    1
     8    15     1    1
     9     1     2   ar
    10     2     3   ar
    11     3     4   ar
    12     4     5   ar
    13     5    20    1
    14    20    21    1
    15    21    22    1
    16    22    23    1
    17    23    24    1
    18    24    25    1
    19     5     6   ar
    20     6     7   ar
    21     7    26    1
    22    26    27   ar
    23    27    28   ar
    24    28    29   ar
    25    29    32    1
    26    32    33   am
    27    33    34    2
    28    33    35   am
    29    35    38    1
    30    38    39   ar
    31    39    40   ar
    32    40    41   ar
    33    41    42   ar
    34    42    43   ar
    35    29    30   ar
    36    30    31   ar
    37     7     8   ar
    38     8     9   ar
    39    15    16    1
    40    16    17    1
    41    17    12    1
    42     9     1   ar
    43     9     4   ar
    44    25    20    1
    45    31    26   ar
    46    43    38   ar
    47    32    36    1
    48    35    37    1
@<TRIPOS>MOLECULE
*****
 43 48 0 0 0
SMALL
GASTEIGER

@<TRIPOS>ATOM
      1 N         -30.9973   46.3637   -9.4535 N.ar    1  UNL1       -0.2357
      2 N         -31.5838   45.4340   -8.7030 N.ar    1  UNL1       -0.1663
      3 C         -31.0730   45.5122   -7.4478 C.ar    1  UNL1        0.1260
      4 C         -30.1272   46.5184   -7.4278 C.ar    1  UNL1        0.0880
      5 C         -29.2380   47.0027   -6.4737 C.ar    1  UNL1        0.1380
      6 N         -28.3493   47.9615   -6.8747 N.ar    1  UNL1       -0.2117
      7 C         -28.3315   48.4474   -8.1606 C.ar    1  UNL1        0.1653
      8 N         -29.2184   47.9585   -9.0831 N.ar    1  UNL1       -0.2079
      9 C         -30.1010   47.0095   -8.6905 C.ar    1  UNL1        0.1652
     10 C         -31.0577   47.7796  -14.9084 C.2     1  UNL1        0.4050
     11 O         -31.4289   48.9352  -15.2546 O.2     1  UNL1       -0.2262
     12 N         -30.7708   47.4902  -13.5271 N.am    1  UNL1       -0.2459
     13 C         -30.8783   48.5344  -12.4956 C.3     1  UNL1        0.0987
     14 C         -31.5603   47.9967  -11.2252 C.3     1  UNL1        0.0461
     15 C         -31.2035   46.5255  -10.8958 C.3     1  UNL1        0.1102
     16 C         -29.9743   46.0334  -11.6756 C.3     1  UNL1        0.0461
     17 C         -30.2242   46.1689  -13.1820 C.3     1  UNL1        0.0987
     18 C         -30.3026   46.9939  -17.1320 C.3     1  UNL1        0.2573
     19 O         -30.9219   46.7726  -15.8708 O.3     1  UNL1       -0.4304
     20 N         -29.2138   46.5012   -5.1285 N.pl3   1  UNL1       -0.2879
     21 C         -28.4234   45.3093   -4.8099 C.3     1  UNL1        0.1242
     22 C         -28.0734   45.3127   -3.3194 C.3     1  UNL1        0.1636
     23 O         -29.2399   45.4622   -2.5312 O.3     1  UNL1       -0.3501
     24 C         -29.8208   46.7315   -2.7682 C.3     1  UNL1        0.1636
     25 C         -30.3056   46.8487   -4.2172 C.3     1  UNL1        0.1242
     26 C         -27.3480   49.4873   -8.5508 C.ar    1  UNL1        0.0360
     27 C         -26.3181   49.1933   -9.4628 C.ar    1  UNL1        0.0043
     28 C         -25.3928   50.1744   -9.8300 C.ar    1  UNL1        0.0148
     29 C         -25.4846   51.4717   -9.3084 C.ar    1  UNL1        0.0516
     30 C         -26.4974   51.7640   -8.3795 C.ar    1  UNL1        0.0148
     31 C         -27.4233   50.7839   -8.0098 C.ar    1  UNL1        0.0043
     32 N         -24.5059   52.4551   -9.6871 N.am    1  UNL1       -0.2681
     33 C         -23.0868   52.2506   -9.6104 C.2     1  UNL1        0.3082
     34 O         -22.6204   51.2765   -8.9590 O.2     1  UNL1       -0.2522
     35 N         -22.2014   53.2092  -10.2095 N.am    1  UNL1       -0.2681
     36 H         -24.8451   53.4040   -9.9646 H       1  UNL1        0.1564
     37 H         -22.5996   54.1386  -10.4737 H       1  UNL1        0.1564
     38 C         -20.7869   53.0089  -10.3743 C.ar    1  UNL1        0.0516
     39 C         -20.3099   52.4015  -11.5468 C.ar    1  UNL1        0.0147
     40 C         -18.9409   52.1758  -11.7210 C.ar    1  UNL1        0.0013
     41 C         -18.0381   52.5409  -10.7193 C.ar    1  UNL1        0.0001
     42 C         -18.5040   53.1247   -9.5385 C.ar    1  UNL1        0.0013
     43 C         -19.8723   53.3529   -9.3607 C.ar    1  UNL1        0.0147
@<TRIPOS>BOND
     1    18    19    1
     2    19    10    1
     3    10    11    2
     4    10    12   am
     5    12    13    1
     6    13    14    1
     7    14    15    1
     8    15     1    1
     9     1     2   ar
    10     2     3   ar
    11     3     4   ar
    12     4     5   ar
    13     5    20    1
    14    20    21    1
    15    21    22    1
    16    22    23    1
    17    23    24    1
    18    24    25    1
    19     5     6   ar
    20     6     7   ar
    21     7    26    1
    22    26    27   ar
    23    27    28   ar
    24    28    29   ar
    25    29    32    1
    26    32    33   am
    27    33    34    2
    28    33    35   am
    29    35    38    1
    30    38    39   ar
    31    39    40   ar
    32    40    41   ar
    33    41    42   ar
    34    42    43   ar
    35    29    30   ar
    36    30    31   ar
    37     7     8   ar
    38     8     9   ar
    39    15    16    1
    40    16    17    1
    41    17    12    1
    42     9     1   ar
    43     9     4   ar
    44    25    20    1
    45    31    26   ar
    46    43    38   ar
    47    32    36    1
    48    35    37    1
