@<TRIPOS>MOLECULE
*****
 52 59 0 0 0
SMALL
GASTEIGER

@<TRIPOS>ATOM
      1 C          61.6440   84.5074   14.0425 C.ar    1  UNL1        0.0043
      2 C          62.5149   83.4232   13.8448 C.ar    1  UNL1        0.0060
      3 C          62.0355   82.1934   13.4047 C.ar    1  UNL1        0.0691
      4 C          60.6709   82.0198   13.1459 C.ar    1  UNL1        0.2270
      5 C          59.7852   83.0830   13.3678 C.ar    1  UNL1        0.0729
      6 C          60.2531   84.3463   13.7814 C.ar    1  UNL1        0.0773
      7 N          60.1803   80.7535   12.6566 N.am    1  UNL1       -0.0905
      8 C          60.3655   79.6650   13.4817 C.2     1  UNL1        0.4229
      9 O          61.0978   79.7468   14.5077 O.2     1  UNL1       -0.2135
     10 C          59.7225   78.4578   13.2298 C.2     1  UNL1        0.1157
     11 C          58.8351   78.3615   12.1743 C.2     1  UNL1        0.0173
     12 C          58.6494   79.4475   11.3197 C.ar    1  UNL1        0.0828
     13 C          57.7068   79.3528   10.2940 C.ar    1  UNL1        0.1047
     14 N          57.5188   80.3838    9.4428 N.ar    1  UNL1       -0.2434
     15 C          58.2628   81.5137    9.5038 C.ar    1  UNL1        0.0870
     16 C          58.0486   82.5021    8.5378 C.ar    1  UNL1        0.0193
     17 C          58.8587   83.6313    8.4929 C.ar    1  UNL1        0.0016
     18 C          59.9159   83.7681    9.3937 C.ar    1  UNL1        0.0018
     19 C          60.1453   82.7753   10.3577 C.ar    1  UNL1        0.0075
     20 C          59.2751   81.6636   10.4944 C.ar    1  UNL1        0.0810
     21 C          59.4005   80.6424   11.5066 C.ar    1  UNL1        0.2297
     22 C          60.7869   84.9547    9.3247 C.ar    1  UNL1        0.0192
     23 C          61.7784   85.0538    8.3387 C.ar    1  UNL1        0.0988
     24 N          62.5595   86.1641    8.2610 N.ar    1  UNL1       -0.2438
     25 C          62.3992   87.2137    9.1110 C.ar    1  UNL1        0.0813
     26 C          63.2128   88.3469    8.9916 C.ar    1  UNL1        0.0191
     27 C          63.0249   89.4367    9.8481 C.ar    1  UNL1        0.0015
     28 C          62.0216   89.4005   10.8213 C.ar    1  UNL1        0.0001
     29 C          61.2096   88.2703   10.9526 C.ar    1  UNL1        0.0015
     30 C          61.3994   87.1668   10.1079 C.ar    1  UNL1        0.0177
     31 C          60.6060   86.0177   10.2199 C.ar    1  UNL1        0.0030
     32 C          63.4076   88.2309   15.2732 C.ar    1  UNL1        0.0534
     33 C          63.3530   87.8748   13.9147 C.ar    1  UNL1        0.0045
     34 C          62.7818   86.6628   13.5238 C.ar    1  UNL1        0.0001
     35 C          62.2408   85.7898   14.4791 C.ar    1  UNL1       -0.0000
     36 C          62.3137   86.1300   15.8380 C.ar    1  UNL1        0.0001
     37 C          62.8795   87.3472   16.2309 C.ar    1  UNL1        0.0045
     38 N          65.2182   89.9997   15.1248 N.am    1  UNL1       -0.3024
     39 C          63.9843   89.5294   15.6902 C.2     1  UNL1        0.2458
     40 O          63.3847   90.2293   16.5516 O.2     1  UNL1       -0.2701
     41 H          65.8596   89.2975   14.6939 H       1  UNL1        0.1497
     42 C          68.8645   90.0716   14.1480 C.3     1  UNL1        0.0896
     43 N          68.2480   91.3860   13.9038 N.3     1  UNL1       -0.2714
     44 C          67.0280   91.2817   13.0594 C.3     1  UNL1        0.0738
     45 C          65.7773   91.9174   13.6885 C.3     1  UNL1        0.0369
     46 C          65.5878   91.4223   15.1308 C.3     1  UNL1        0.0746
     47 C          66.8609   91.6699   15.9843 C.3     1  UNL1        0.0369
     48 C          68.0697   92.1500   15.1578 C.3     1  UNL1        0.0738
     49 C          59.2443   85.4653   13.9700 C.3     1  UNL1        0.4188
     50 F          59.4538   86.1393   15.1576 F       1  UNL1       -0.1659
     51 F          57.9673   84.9370   13.9651 F       1  UNL1       -0.1659
     52 F          59.3393   86.3940   12.9472 F       1  UNL1       -0.1659
@<TRIPOS>BOND
     1    42    43    1
     2    43    44    1
     3    44    45    1
     4    45    46    1
     5    46    38    1
     6    38    39   am
     7    39    40    2
     8    39    32    1
     9    32    33   ar
    10    33    34   ar
    11    34    35   ar
    12    35     1    1
    13     1     2   ar
    14     2     3   ar
    15     3     4   ar
    16     4     7    1
    17     7     8    1
    18     8     9    2
    19     8    10    1
    20    10    11    2
    21    11    12    1
    22    12    13   ar
    23    13    14   ar
    24    14    15   ar
    25    15    16   ar
    26    16    17   ar
    27    17    18   ar
    28    18    22    1
    29    22    23   ar
    30    23    24   ar
    31    24    25   ar
    32    25    26   ar
    33    26    27   ar
    34    27    28   ar
    35    28    29   ar
    36    29    30   ar
    37    30    31   ar
    38    18    19   ar
    39    19    20   ar
    40    20    21   ar
    41     4     5   ar
    42     5     6   ar
    43     6    49    1
    44    49    50    1
    45    49    51    1
    46    49    52    1
    47    35    36   ar
    48    36    37   ar
    49    46    47    1
    50    47    48    1
    51    48    43    1
    52    37    32   ar
    53     6     1   ar
    54    21     7    1
    55    21    12   ar
    56    20    15   ar
    57    31    22   ar
    58    30    25   ar
    59    38    41    1
@<TRIPOS>MOLECULE
*****
 52 59 0 0 0
SMALL
GASTEIGER

@<TRIPOS>ATOM
      1 C          61.2434   85.4132   10.2195 C.ar    1  UNL1        0.0043
      2 C          60.0911   85.2722   11.0103 C.ar    1  UNL1        0.0060
      3 C          59.3552   84.0914   10.9955 C.ar    1  UNL1        0.0691
      4 C          59.7583   83.0189   10.1915 C.ar    1  UNL1        0.2270
      5 C          60.8883   83.1553    9.3738 C.ar    1  UNL1        0.0729
      6 C          61.6670   84.3297    9.3978 C.ar    1  UNL1        0.0773
      7 N          59.0132   81.7827   10.2034 N.am    1  UNL1       -0.0905
      8 C          58.0228   81.6557    9.2531 C.2     1  UNL1        0.4229
      9 O          57.6658   82.6446    8.5532 O.2     1  UNL1       -0.2135
     10 C          57.4152   80.4281    9.0119 C.2     1  UNL1        0.1157
     11 C          57.8506   79.3036    9.6875 C.2     1  UNL1        0.0173
     12 C          58.8392   79.4175   10.6642 C.ar    1  UNL1        0.0828
     13 C          59.3082   78.2639   11.2956 C.ar    1  UNL1        0.1047
     14 N          60.2534   78.3479   12.2559 N.ar    1  UNL1       -0.2434
     15 C          60.7388   79.5362   12.6874 C.ar    1  UNL1        0.0870
     16 C          61.6644   79.5335   13.7359 C.ar    1  UNL1        0.0193
     17 C          62.1105   80.7303   14.2856 C.ar    1  UNL1        0.0016
     18 C          61.6086   81.9445   13.8148 C.ar    1  UNL1        0.0018
     19 C          60.6706   81.9555   12.7718 C.ar    1  UNL1        0.0075
     20 C          60.2740   80.7584   12.1227 C.ar    1  UNL1        0.0810
     21 C          59.3737   80.6945   10.9964 C.ar    1  UNL1        0.2297
     22 C          62.0658   83.2085   14.4186 C.ar    1  UNL1        0.0192
     23 C          63.4198   83.4022   14.7254 C.ar    1  UNL1        0.0988
     24 N          63.8409   84.5818   15.2548 N.ar    1  UNL1       -0.2438
     25 C          62.9819   85.6107   15.4857 C.ar    1  UNL1        0.0813
     26 C          63.4544   86.8162   16.0186 C.ar    1  UNL1        0.0191
     27 C          62.5733   87.8824   16.2262 C.ar    1  UNL1        0.0015
     28 C          61.2206   87.7503   15.8976 C.ar    1  UNL1        0.0001
     29 C          60.7388   86.5480   15.3720 C.ar    1  UNL1        0.0015
     30 C          61.6116   85.4681   15.1733 C.ar    1  UNL1        0.0177
     31 C          61.1569   84.2488   14.6549 C.ar    1  UNL1        0.0030
     32 C          63.3919   89.1224   10.5593 C.ar    1  UNL1        0.0534
     33 C          63.2945   88.2445   11.6524 C.ar    1  UNL1        0.0045
     34 C          62.5925   87.0439   11.5349 C.ar    1  UNL1        0.0001
     35 C          61.9870   86.6893   10.3204 C.ar    1  UNL1       -0.0000
     36 C          62.0615   87.5727    9.2333 C.ar    1  UNL1        0.0001
     37 C          62.7705   88.7729    9.3474 C.ar    1  UNL1        0.0045
     38 N          65.0274   90.6174   11.7917 N.am    1  UNL1       -0.3024
     39 C          64.1618   90.3823   10.6697 C.2     1  UNL1        0.2458
     40 O          64.0556   91.2583    9.7681 O.2     1  UNL1       -0.2701
     41 H          64.8566   90.0725   12.6659 H       1  UNL1        0.1497
     42 C          66.1186   91.0707   15.3776 C.3     1  UNL1        0.0896
     43 N          67.1975   91.4803   14.4635 N.3     1  UNL1       -0.2714
     44 C          67.5335   90.4131   13.4836 C.3     1  UNL1        0.0738
     45 C          67.4645   90.8685   12.0166 C.3     1  UNL1        0.0369
     46 C          66.1337   91.5835   11.7357 C.3     1  UNL1        0.0746
     47 C          65.9053   92.7594   12.7236 C.3     1  UNL1        0.0369
     48 C          66.9369   92.8087   13.8674 C.3     1  UNL1        0.0738
     49 C          62.8989   84.3992    8.5128 C.3     1  UNL1        0.4188
     50 F          63.2660   85.7068    8.2601 F       1  UNL1       -0.1659
     51 F          62.6400   83.7591    7.3157 F       1  UNL1       -0.1659
     52 F          63.9783   83.7782    9.1185 F       1  UNL1       -0.1659
@<TRIPOS>BOND
     1    42    43    1
     2    43    44    1
     3    44    45    1
     4    45    46    1
     5    46    38    1
     6    38    39   am
     7    39    40    2
     8    39    32    1
     9    32    33   ar
    10    33    34   ar
    11    34    35   ar
    12    35     1    1
    13     1     2   ar
    14     2     3   ar
    15     3     4   ar
    16     4     7    1
    17     7     8    1
    18     8     9    2
    19     8    10    1
    20    10    11    2
    21    11    12    1
    22    12    13   ar
    23    13    14   ar
    24    14    15   ar
    25    15    16   ar
    26    16    17   ar
    27    17    18   ar
    28    18    22    1
    29    22    23   ar
    30    23    24   ar
    31    24    25   ar
    32    25    26   ar
    33    26    27   ar
    34    27    28   ar
    35    28    29   ar
    36    29    30   ar
    37    30    31   ar
    38    18    19   ar
    39    19    20   ar
    40    20    21   ar
    41     4     5   ar
    42     5     6   ar
    43     6    49    1
    44    49    50    1
    45    49    51    1
    46    49    52    1
    47    35    36   ar
    48    36    37   ar
    49    46    47    1
    50    47    48    1
    51    48    43    1
    52    37    32   ar
    53     6     1   ar
    54    21     7    1
    55    21    12   ar
    56    20    15   ar
    57    31    22   ar
    58    30    25   ar
    59    38    41    1
@<TRIPOS>MOLECULE
*****
 52 59 0 0 0
SMALL
GASTEIGER

@<TRIPOS>ATOM
      1 C          62.5916   85.7150   14.2373 C.ar    1  UNL1        0.0043
      2 C          63.9720   85.9666   14.1722 C.ar    1  UNL1        0.0060
      3 C          64.4757   87.2452   14.3897 C.ar    1  UNL1        0.0691
      4 C          63.6091   88.3043   14.6836 C.ar    1  UNL1        0.2270
      5 C          62.2269   88.0754   14.7218 C.ar    1  UNL1        0.0729
      6 C          61.6976   86.7824   14.5374 C.ar    1  UNL1        0.0773
      7 N          64.1360   89.6229   14.9428 N.am    1  UNL1       -0.0905
      8 C          64.2345   89.9934   16.2668 C.2     1  UNL1        0.4229
      9 O          63.7067   89.2938   17.1764 O.2     1  UNL1       -0.2135
     10 C          64.9487   91.1263   16.6421 C.2     1  UNL1        0.1157
     11 C          65.6237   91.8593   15.6841 C.2     1  UNL1        0.0173
     12 C          65.5205   91.5084   14.3385 C.ar    1  UNL1        0.0828
     13 C          66.2547   92.2236   13.3905 C.ar    1  UNL1        0.1047
     14 N          66.1605   91.9147   12.0796 N.ar    1  UNL1       -0.2434
     15 C          65.3200   90.9556   11.6237 C.ar    1  UNL1        0.0870
     16 C          65.2342   90.7504   10.2429 C.ar    1  UNL1        0.0193
     17 C          64.3092   89.8538    9.7196 C.ar    1  UNL1        0.0016
     18 C          63.4345   89.1769   10.5709 C.ar    1  UNL1        0.0018
     19 C          63.5056   89.3866   11.9561 C.ar    1  UNL1        0.0075
     20 C          64.5048   90.2156   12.5271 C.ar    1  UNL1        0.0810
     21 C          64.6898   90.4216   13.9437 C.ar    1  UNL1        0.2297
     22 C          62.4391   88.2473   10.0085 C.ar    1  UNL1        0.0192
     23 C          61.0764   88.5762   10.0113 C.ar    1  UNL1        0.0988
     24 N          60.1653   87.7280    9.4641 N.ar    1  UNL1       -0.2438
     25 C          60.5364   86.5550    8.8844 C.ar    1  UNL1        0.0813
     26 C          59.5713   85.7134    8.3180 C.ar    1  UNL1        0.0191
     27 C          59.9598   84.5224    7.6958 C.ar    1  UNL1        0.0015
     28 C          61.3118   84.1714    7.6324 C.ar    1  UNL1        0.0001
     29 C          62.2814   85.0019    8.2017 C.ar    1  UNL1        0.0015
     30 C          61.9007   86.1913    8.8403 C.ar    1  UNL1        0.0177
     31 C          62.8486   87.0403    9.4259 C.ar    1  UNL1        0.0030
     32 C          61.2508   81.6793   13.6007 C.ar    1  UNL1        0.0534
     33 C          61.0235   82.6740   12.6341 C.ar    1  UNL1        0.0045
     34 C          61.4590   83.9824   12.8499 C.ar    1  UNL1        0.0001
     35 C          62.1427   84.3201   14.0271 C.ar    1  UNL1       -0.0000
     36 C          62.3515   83.3363   15.0051 C.ar    1  UNL1        0.0001
     37 C          61.9219   82.0233   14.7874 C.ar    1  UNL1        0.0045
     38 N          59.5485   80.0023   12.7531 N.am    1  UNL1       -0.3024
     39 C          60.8184   80.2833   13.3628 C.2     1  UNL1        0.2458
     40 O          61.5742   79.3312   13.6997 O.2     1  UNL1       -0.2701
     41 H          58.8114   80.7408   12.7918 H       1  UNL1        0.1497
     42 C          58.2604   80.9530    9.3338 C.3     1  UNL1        0.0896
     43 N          58.7562   79.5668    9.3216 N.3     1  UNL1       -0.2714
     44 C          60.1501   79.4686    9.8311 C.3     1  UNL1        0.0738
     45 C          60.3225   78.4718   10.9891 C.3     1  UNL1        0.0369
     46 C          59.2708   78.7253   12.0803 C.3     1  UNL1        0.0746
     47 C          57.8328   78.6978   11.4954 C.3     1  UNL1        0.0369
     48 C          57.7979   78.6356    9.9560 C.3     1  UNL1        0.0738
     49 C          60.1932   86.5970   14.6258 C.3     1  UNL1        0.4188
     50 F          59.8665   85.4170   15.2656 F       1  UNL1       -0.1659
     51 F          59.6567   86.5885   13.3523 F       1  UNL1       -0.1659
     52 F          59.6093   87.6288   15.3414 F       1  UNL1       -0.1659
@<TRIPOS>BOND
     1    42    43    1
     2    43    44    1
     3    44    45    1
     4    45    46    1
     5    46    38    1
     6    38    39   am
     7    39    40    2
     8    39    32    1
     9    32    33   ar
    10    33    34   ar
    11    34    35   ar
    12    35     1    1
    13     1     2   ar
    14     2     3   ar
    15     3     4   ar
    16     4     7    1
    17     7     8    1
    18     8     9    2
    19     8    10    1
    20    10    11    2
    21    11    12    1
    22    12    13   ar
    23    13    14   ar
    24    14    15   ar
    25    15    16   ar
    26    16    17   ar
    27    17    18   ar
    28    18    22    1
    29    22    23   ar
    30    23    24   ar
    31    24    25   ar
    32    25    26   ar
    33    26    27   ar
    34    27    28   ar
    35    28    29   ar
    36    29    30   ar
    37    30    31   ar
    38    18    19   ar
    39    19    20   ar
    40    20    21   ar
    41     4     5   ar
    42     5     6   ar
    43     6    49    1
    44    49    50    1
    45    49    51    1
    46    49    52    1
    47    35    36   ar
    48    36    37   ar
    49    46    47    1
    50    47    48    1
    51    48    43    1
    52    37    32   ar
    53     6     1   ar
    54    21     7    1
    55    21    12   ar
    56    20    15   ar
    57    31    22   ar
    58    30    25   ar
    59    38    41    1
