@<TRIPOS>MOLECULE
*****
 36 40 0 0 0
SMALL
GASTEIGER

@<TRIPOS>ATOM
      1 C          49.7078   10.3689  -19.4158 C.2     1  UNL1        0.2490
      2 O          49.9168    9.2118  -18.9589 O.2     1  UNL1       -0.2699
      3 N          49.9317   10.6248  -20.8144 N.am    1  UNL1       -0.2760
      4 C          50.7118   11.7905  -21.2421 C.3     1  UNL1        0.0954
      5 C          50.0529   12.4960  -22.4431 C.3     1  UNL1        0.0407
      6 C          49.1080   11.5771  -23.2885 C.3     1  UNL1        0.0731
      7 C          49.6092   10.1073  -23.2258 C.3     1  UNL1        0.0407
      8 C          49.6669    9.5590  -21.7873 C.3     1  UNL1        0.0954
      9 N          47.7424   11.6627  -22.7055 N.am    1  UNL1       -0.3015
     10 C          46.8986   12.7955  -22.9688 C.2     1  UNL1        0.2650
     11 O          45.8676   13.0110  -22.2786 O.2     1  UNL1       -0.2684
     12 C          47.2568   13.6558  -24.0881 C.ar    1  UNL1        0.1523
     13 N          46.5958   14.7342  -24.5416 N.ar    1  UNL1       -0.1650
     14 N          47.2057   15.1144  -25.6603 N.ar    1  UNL1       -0.2533
     15 C          48.2221   14.2598  -25.9368 C.ar    1  UNL1        0.0932
     16 C          48.2917   13.3352  -24.9168 C.ar    1  UNL1        0.0313
     17 C          49.0469   12.0377  -24.7989 C.3     1  UNL1        0.0855
     18 S          50.6788   12.1140  -25.6392 S.3     1  UNL1       -0.1627
     19 H          47.3879   10.9365  -22.0446 H       1  UNL1        0.1497
     20 H          50.9566   13.4474  -25.2807 H       1  UNL1        0.1026
     21 C          49.6384   12.5681  -14.9701 C.ar    1  UNL1        0.2248
     22 N          49.1542   13.5506  -14.1587 N.ar    1  UNL1       -0.2101
     23 C          48.2461   14.4641  -14.5899 C.ar    1  UNL1        0.1021
     24 C          47.7751   14.4201  -15.9017 C.ar    1  UNL1        0.0209
     25 C          48.2472   13.4270  -16.7687 C.ar    1  UNL1        0.0060
     26 C          47.7880   13.3581  -18.0907 C.ar    1  UNL1        0.0003
     27 C          48.2636   12.3653  -18.9494 C.ar    1  UNL1        0.0045
     28 C          49.2128   11.4295  -18.5060 C.ar    1  UNL1        0.0537
     29 C          49.6649   11.4876  -17.1763 C.ar    1  UNL1        0.0092
     30 C          49.1925   12.4837  -16.3032 C.ar    1  UNL1        0.0534
     31 C          50.2994   10.7729  -13.3932 C.3     1  UNL1        0.2542
     32 O          50.5740   11.6485  -14.4802 O.3     1  UNL1       -0.4561
     33 C          46.7509   16.2261  -26.5193 C.3     1  UNL1        0.0867
     34 C          46.3488   17.4298  -25.6441 C.3     1  UNL1        0.0244
     35 C          47.8908   16.6326  -27.4704 C.3     1  UNL1        0.0244
     36 C          45.5269   15.7973  -27.3570 C.3     1  UNL1        0.0244
@<TRIPOS>BOND
     1    31    32    1
     2    32    21    1
     3    21    22   ar
     4    22    23   ar
     5    23    24   ar
     6    24    25   ar
     7    25    26   ar
     8    26    27   ar
     9    27    28   ar
    10    28     1    1
    11     1     2    2
    12     1     3   am
    13     3     4    1
    14     4     5    1
    15     5     6    1
    16     6     7    1
    17     7     8    1
    18     6     9    1
    19     9    10   am
    20    10    11    2
    21    10    12    1
    22    12    13   ar
    23    13    14   ar
    24    14    33    1
    25    33    34    1
    26    33    35    1
    27    33    36    1
    28    14    15   ar
    29    15    16   ar
    30    16    17    1
    31    17    18    1
    32    28    29   ar
    33    29    30   ar
    34    30    21   ar
    35    30    25   ar
    36     8     3    1
    37    16    12   ar
    38    17     6    1
    39     9    19    1
    40    18    20    1
@<TRIPOS>MOLECULE
*****
 36 40 0 0 0
SMALL
GASTEIGER

@<TRIPOS>ATOM
      1 C          49.2586   10.4770  -19.7650 C.2     1  UNL1        0.2490
      2 O          49.0881    9.2609  -19.4762 O.2     1  UNL1       -0.2699
      3 N          49.7852   10.8265  -21.0582 N.am    1  UNL1       -0.2760
      4 C          50.8941   11.7785  -21.1776 C.3     1  UNL1        0.0954
      5 C          50.6568   12.7740  -22.3295 C.3     1  UNL1        0.0407
      6 C          49.6797   12.2536  -23.4370 C.3     1  UNL1        0.0731
      7 C          49.7801   10.7063  -23.5425 C.3     1  UNL1        0.0407
      8 C          49.4417    9.9962  -22.2179 C.3     1  UNL1        0.0954
      9 N          48.2970   12.6374  -23.0463 N.am    1  UNL1       -0.3015
     10 C          47.8225   13.9798  -23.2394 C.2     1  UNL1        0.2650
     11 O          46.7714   14.3839  -22.6759 O.2     1  UNL1       -0.2684
     12 C          48.5774   14.8369  -24.1432 C.ar    1  UNL1        0.1523
     13 N          48.2974   16.1003  -24.5051 N.ar    1  UNL1       -0.1650
     14 N          49.1724   16.4304  -25.4503 N.ar    1  UNL1       -0.2533
     15 C          49.9767   15.3708  -25.7151 C.ar    1  UNL1        0.0932
     16 C          49.6308   14.3478  -24.8584 C.ar    1  UNL1        0.0313
     17 C          50.0059   12.8894  -24.8465 C.3     1  UNL1        0.0855
     18 S          51.7285   12.6185  -25.4248 S.3     1  UNL1       -0.1627
     19 H          47.6607   11.9617  -22.5681 H       1  UNL1        0.1497
     20 H          52.2606   13.7737  -24.8200 H       1  UNL1        0.1026
     21 C          49.4444   12.3328  -15.1686 C.ar    1  UNL1        0.2248
     22 N          49.0763   13.3009  -14.2825 N.ar    1  UNL1       -0.2101
     23 C          48.2781   14.3415  -14.6365 C.ar    1  UNL1        0.1021
     24 C          47.8041   14.4491  -15.9436 C.ar    1  UNL1        0.0209
     25 C          48.1590   13.4759  -16.8859 C.ar    1  UNL1        0.0060
     26 C          47.6939   13.5583  -18.2051 C.ar    1  UNL1        0.0003
     27 C          48.0523   12.5846  -19.1391 C.ar    1  UNL1        0.0045
     28 C          48.8887   11.5164  -18.7748 C.ar    1  UNL1        0.0537
     29 C          49.3455   11.4235  -17.4487 C.ar    1  UNL1        0.0092
     30 C          48.9908   12.3992  -16.5001 C.ar    1  UNL1        0.0534
     31 C          50.2833   10.7858  -13.4223 C.3     1  UNL1        0.2542
     32 O          50.2693   11.2788  -14.7566 O.3     1  UNL1       -0.4561
     33 C          49.1693   17.7177  -26.1738 C.3     1  UNL1        0.0867
     34 C          50.6192   18.1739  -26.4314 C.3     1  UNL1        0.0244
     35 C          48.4327   17.5454  -27.5144 C.3     1  UNL1        0.0244
     36 C          48.4527   18.8042  -25.3432 C.3     1  UNL1        0.0244
@<TRIPOS>BOND
     1    31    32    1
     2    32    21    1
     3    21    22   ar
     4    22    23   ar
     5    23    24   ar
     6    24    25   ar
     7    25    26   ar
     8    26    27   ar
     9    27    28   ar
    10    28     1    1
    11     1     2    2
    12     1     3   am
    13     3     4    1
    14     4     5    1
    15     5     6    1
    16     6     7    1
    17     7     8    1
    18     6     9    1
    19     9    10   am
    20    10    11    2
    21    10    12    1
    22    12    13   ar
    23    13    14   ar
    24    14    33    1
    25    33    34    1
    26    33    35    1
    27    33    36    1
    28    14    15   ar
    29    15    16   ar
    30    16    17    1
    31    17    18    1
    32    28    29   ar
    33    29    30   ar
    34    30    21   ar
    35    30    25   ar
    36     8     3    1
    37    16    12   ar
    38    17     6    1
    39     9    19    1
    40    18    20    1
@<TRIPOS>MOLECULE
*****
 36 40 0 0 0
SMALL
GASTEIGER

@<TRIPOS>ATOM
      1 C          45.8407   15.7686  -28.3948 C.2     1  UNL1        0.2490
      2 O          45.1968   16.6996  -28.9516 O.2     1  UNL1       -0.2699
      3 N          46.4230   15.9931  -27.0977 N.am    1  UNL1       -0.2760
      4 C          47.8200   15.6318  -26.8365 C.3     1  UNL1        0.0954
      5 C          47.9745   14.9440  -25.4665 C.3     1  UNL1        0.0407
      6 C          46.8355   15.2816  -24.4463 C.3     1  UNL1        0.0731
      7 C          46.2906   16.7111  -24.7200 C.3     1  UNL1        0.0407
      8 C          45.7334   16.8725  -26.1472 C.3     1  UNL1        0.0954
      9 N          45.7440   14.2886  -24.6319 N.am    1  UNL1       -0.3015
     10 C          45.8544   12.9623  -24.0903 C.2     1  UNL1        0.2650
     11 O          45.0791   12.0426  -24.4628 O.2     1  UNL1       -0.2684
     12 C          46.8649   12.7356  -23.0662 C.ar    1  UNL1        0.1523
     13 N          47.1151   11.5992  -22.3942 N.ar    1  UNL1       -0.1650
     14 N          48.0182   11.8954  -21.4644 N.ar    1  UNL1       -0.2533
     15 C          48.3097   13.2190  -21.5193 C.ar    1  UNL1        0.0932
     16 C          47.6028   13.7685  -22.5672 C.ar    1  UNL1        0.0313
     17 C          47.3486   15.2016  -22.9537 C.3     1  UNL1        0.0855
     18 S          48.7902   16.2788  -22.5844 S.3     1  UNL1       -0.1627
     19 H          44.9025   14.5086  -25.2093 H       1  UNL1        0.1497
     20 H          49.7673   15.3266  -22.9339 H       1  UNL1        0.1026
     21 C          46.9484   10.9341  -28.3183 C.ar    1  UNL1        0.2248
     22 N          47.0562    9.7484  -28.9819 N.ar    1  UNL1       -0.2101
     23 C          46.7661    9.6288  -30.3035 C.ar    1  UNL1        0.1021
     24 C          46.3414   10.7396  -31.0318 C.ar    1  UNL1        0.0209
     25 C          46.2166   11.9770  -30.3883 C.ar    1  UNL1        0.0060
     26 C          45.7951   13.1097  -31.0973 C.ar    1  UNL1        0.0003
     27 C          45.6726   14.3399  -30.4488 C.ar    1  UNL1        0.0045
     28 C          45.9601   14.4590  -29.0790 C.ar    1  UNL1        0.0537
     29 C          46.3965   13.3275  -28.3682 C.ar    1  UNL1        0.0092
     30 C          46.5229   12.0835  -29.0118 C.ar    1  UNL1        0.0534
     31 C          48.5778   11.2408  -26.4750 C.3     1  UNL1        0.2542
     32 O          47.2589   11.0080  -26.9548 O.3     1  UNL1       -0.4561
     33 C          48.5192   10.9392  -20.4568 C.3     1  UNL1        0.0867
     34 C          50.0220   11.1800  -20.2121 C.3     1  UNL1        0.0244
     35 C          47.7412   11.1315  -19.1426 C.3     1  UNL1        0.0244
     36 C          48.3277    9.4872  -20.9457 C.3     1  UNL1        0.0244
@<TRIPOS>BOND
     1    31    32    1
     2    32    21    1
     3    21    22   ar
     4    22    23   ar
     5    23    24   ar
     6    24    25   ar
     7    25    26   ar
     8    26    27   ar
     9    27    28   ar
    10    28     1    1
    11     1     2    2
    12     1     3   am
    13     3     4    1
    14     4     5    1
    15     5     6    1
    16     6     7    1
    17     7     8    1
    18     6     9    1
    19     9    10   am
    20    10    11    2
    21    10    12    1
    22    12    13   ar
    23    13    14   ar
    24    14    33    1
    25    33    34    1
    26    33    35    1
    27    33    36    1
    28    14    15   ar
    29    15    16   ar
    30    16    17    1
    31    17    18    1
    32    28    29   ar
    33    29    30   ar
    34    30    21   ar
    35    30    25   ar
    36     8     3    1
    37    16    12   ar
    38    17     6    1
    39     9    19    1
    40    18    20    1
@<TRIPOS>MOLECULE
*****
 36 40 0 0 0
SMALL
GASTEIGER

@<TRIPOS>ATOM
      1 C          49.9132   12.5817  -25.4191 C.2     1  UNL1        0.2490
      2 O          50.2915   12.0548  -26.5012 O.2     1  UNL1       -0.2699
      3 N          49.5339   11.7352  -24.3186 N.am    1  UNL1       -0.2760
      4 C          48.2804   11.9718  -23.5954 C.3     1  UNL1        0.0954
      5 C          48.4778   11.8394  -22.0730 C.3     1  UNL1        0.0407
      6 C          49.7048   10.9591  -21.6587 C.3     1  UNL1        0.0731
      7 C          49.9544    9.8649  -22.7337 C.3     1  UNL1        0.0407
      8 C          50.2241   10.4541  -24.1314 C.3     1  UNL1        0.0954
      9 N          50.8951   11.8458  -21.5651 N.am    1  UNL1       -0.3015
     10 C          51.0970   12.6900  -20.4201 C.2     1  UNL1        0.2650
     11 O          51.9360   13.6286  -20.4456 O.2     1  UNL1       -0.2684
     12 C          50.3282   12.3910  -19.2197 C.ar    1  UNL1        0.1523
     13 N          50.3857   13.0121  -18.0296 N.ar    1  UNL1       -0.1650
     14 N          49.6200   12.3142  -17.1962 N.ar    1  UNL1       -0.2533
     15 C          49.1117   11.2350  -17.8420 C.ar    1  UNL1        0.0932
     16 C          49.5288   11.2877  -19.1547 C.ar    1  UNL1        0.0313
     17 C          49.4760   10.2641  -20.2580 C.3     1  UNL1        0.0855
     18 S          47.9633    9.2261  -20.1601 S.3     1  UNL1       -0.1627
     19 H          51.5776   11.9230  -22.3514 H       1  UNL1        0.1497
     20 H          47.1091   10.2656  -19.7441 H       1  UNL1        0.1026
     21 C          48.3270   17.0233  -26.9559 C.ar    1  UNL1        0.2248
     22 N          48.3403   18.3799  -26.8237 N.ar    1  UNL1       -0.2101
     23 C          49.0816   19.0081  -25.8745 C.ar    1  UNL1        0.1021
     24 C          49.8654   18.2660  -24.9915 C.ar    1  UNL1        0.0209
     25 C          49.8801   16.8694  -25.0925 C.ar    1  UNL1        0.0060
     26 C          50.6613   16.1000  -24.2200 C.ar    1  UNL1        0.0003
     27 C          50.6706   14.7080  -24.3265 C.ar    1  UNL1        0.0045
     28 C          49.8930   14.0592  -25.3000 C.ar    1  UNL1        0.0537
     29 C          49.1190   14.8291  -26.1856 C.ar    1  UNL1        0.0092
     30 C          49.1023   16.2318  -26.0867 C.ar    1  UNL1        0.0534
     31 C          46.1470   16.2081  -27.8100 C.3     1  UNL1        0.2542
     32 O          47.5465   16.4209  -27.9504 O.3     1  UNL1       -0.4561
     33 C          49.4621   12.6176  -15.7597 C.3     1  UNL1        0.0867
     34 C          50.8407   12.9094  -15.1344 C.3     1  UNL1        0.0244
     35 C          48.5474   13.8448  -15.5970 C.3     1  UNL1        0.0244
     36 C          48.8306   11.4190  -15.0192 C.3     1  UNL1        0.0244
@<TRIPOS>BOND
     1    31    32    1
     2    32    21    1
     3    21    22   ar
     4    22    23   ar
     5    23    24   ar
     6    24    25   ar
     7    25    26   ar
     8    26    27   ar
     9    27    28   ar
    10    28     1    1
    11     1     2    2
    12     1     3   am
    13     3     4    1
    14     4     5    1
    15     5     6    1
    16     6     7    1
    17     7     8    1
    18     6     9    1
    19     9    10   am
    20    10    11    2
    21    10    12    1
    22    12    13   ar
    23    13    14   ar
    24    14    33    1
    25    33    34    1
    26    33    35    1
    27    33    36    1
    28    14    15   ar
    29    15    16   ar
    30    16    17    1
    31    17    18    1
    32    28    29   ar
    33    29    30   ar
    34    30    21   ar
    35    30    25   ar
    36     8     3    1
    37    16    12   ar
    38    17     6    1
    39     9    19    1
    40    18    20    1
@<TRIPOS>MOLECULE
*****
 36 40 0 0 0
SMALL
GASTEIGER

@<TRIPOS>ATOM
      1 C          48.3186   13.1267  -25.2858 C.2     1  UNL1        0.2490
      2 O          48.5802   12.7878  -26.4725 O.2     1  UNL1       -0.2699
      3 N          48.4091   12.1452  -24.2369 N.am    1  UNL1       -0.2760
      4 C          47.3193   11.9885  -23.2684 C.3     1  UNL1        0.0954
      5 C          47.8618   11.8249  -21.8356 C.3     1  UNL1        0.0407
      6 C          49.3313   11.2888  -21.7626 C.3     1  UNL1        0.0731
      7 C          49.6173   10.3694  -22.9825 C.3     1  UNL1        0.0407
      8 C          49.4258   11.0916  -24.3298 C.3     1  UNL1        0.0954
      9 N          50.2488   12.4588  -21.7949 N.am    1  UNL1       -0.3015
     10 C          50.4673   13.2567  -20.6200 C.2     1  UNL1        0.2650
     11 O          51.0149   14.3880  -20.6964 O.2     1  UNL1       -0.2684
     12 C          50.0722   12.6891  -19.3382 C.ar    1  UNL1        0.1523
     13 N          50.2206   13.2308  -18.1175 N.ar    1  UNL1       -0.1650
     14 N          49.8521   12.3027  -17.2395 N.ar    1  UNL1       -0.2533
     15 C          49.5101   11.1662  -17.8963 C.ar    1  UNL1        0.0932
     16 C          49.6122   11.4081  -19.2495 C.ar    1  UNL1        0.0313
     17 C          49.5889   10.4760  -20.4320 C.3     1  UNL1        0.0855
     18 S          48.4462    9.0616  -20.1694 S.3     1  UNL1       -0.1627
     19 H          50.7066   12.7652  -22.6817 H       1  UNL1        0.1497
     20 H          47.4639    9.8029  -19.4845 H       1  UNL1        0.1026
     21 C          49.0363   17.9976  -25.8903 C.ar    1  UNL1        0.2248
     22 N          48.6754   19.2784  -25.5951 N.ar    1  UNL1       -0.2101
     23 C          47.6517   19.5660  -24.7498 C.ar    1  UNL1        0.1021
     24 C          46.9278   18.5368  -24.1487 C.ar    1  UNL1        0.0209
     25 C          47.2656   17.2063  -24.4253 C.ar    1  UNL1        0.0060
     26 C          46.5566   16.1531  -23.8323 C.ar    1  UNL1        0.0003
     27 C          46.8989   14.8290  -24.1131 C.ar    1  UNL1        0.0045
     28 C          47.9490   14.5332  -24.9980 C.ar    1  UNL1        0.0537
     29 C          48.6710   15.5876  -25.5836 C.ar    1  UNL1        0.0092
     30 C          48.3342   16.9248  -25.3077 C.ar    1  UNL1        0.0534
     31 C          51.4610   17.9430  -26.4045 C.3     1  UNL1        0.2542
     32 O          50.0992   17.7506  -26.7680 O.3     1  UNL1       -0.4561
     33 C          49.9304   12.4661  -15.7740 C.3     1  UNL1        0.0867
     34 C          51.3687   12.8440  -15.3681 C.3     1  UNL1        0.0244
     35 C          48.9577   13.5747  -15.3336 C.3     1  UNL1        0.0244
     36 C          49.5484   11.1508  -15.0613 C.3     1  UNL1        0.0244
@<TRIPOS>BOND
     1    31    32    1
     2    32    21    1
     3    21    22   ar
     4    22    23   ar
     5    23    24   ar
     6    24    25   ar
     7    25    26   ar
     8    26    27   ar
     9    27    28   ar
    10    28     1    1
    11     1     2    2
    12     1     3   am
    13     3     4    1
    14     4     5    1
    15     5     6    1
    16     6     7    1
    17     7     8    1
    18     6     9    1
    19     9    10   am
    20    10    11    2
    21    10    12    1
    22    12    13   ar
    23    13    14   ar
    24    14    33    1
    25    33    34    1
    26    33    35    1
    27    33    36    1
    28    14    15   ar
    29    15    16   ar
    30    16    17    1
    31    17    18    1
    32    28    29   ar
    33    29    30   ar
    34    30    21   ar
    35    30    25   ar
    36     8     3    1
    37    16    12   ar
    38    17     6    1
    39     9    19    1
    40    18    20    1
@<TRIPOS>MOLECULE
*****
 36 40 0 0 0
SMALL
GASTEIGER

@<TRIPOS>ATOM
      1 C          48.7795   10.3975  -19.8262 C.2     1  UNL1        0.2490
      2 O          47.9990    9.4900  -19.4280 O.2     1  UNL1       -0.2699
      3 N          48.7950   10.7508  -21.2215 N.am    1  UNL1       -0.2760
      4 C          50.0645   10.8627  -21.9468 C.3     1  UNL1        0.0954
      5 C          50.0812   12.1037  -22.8598 C.3     1  UNL1        0.0407
      6 C          48.6603   12.6160  -23.2732 C.3     1  UNL1        0.0731
      7 C          47.6677   11.4217  -23.3347 C.3     1  UNL1        0.0407
      8 C          47.5482   10.6773  -21.9912 C.3     1  UNL1        0.0954
      9 N          48.2058   13.5887  -22.2441 N.am    1  UNL1       -0.3015
     10 C          48.7034   14.9366  -22.2334 C.2     1  UNL1        0.2650
     11 O          48.5435   15.6795  -21.2293 O.2     1  UNL1       -0.2684
     12 C          49.3581   15.4217  -23.4406 C.ar    1  UNL1        0.1523
     13 N          49.8555   16.6487  -23.6707 N.ar    1  UNL1       -0.1650
     14 N          50.2239   16.6789  -24.9479 N.ar    1  UNL1       -0.2533
     15 C          49.9258   15.4930  -25.5351 C.ar    1  UNL1        0.0932
     16 C          49.4001   14.6597  -24.5711 C.ar    1  UNL1        0.0313
     17 C          48.6880   13.3373  -24.6790 C.3     1  UNL1        0.0855
     18 S          49.3511   12.3098  -26.0501 S.3     1  UNL1       -0.1627
     19 H          47.5652   13.3017  -21.4713 H       1  UNL1        0.1497
     20 H          50.6954   12.6887  -25.8689 H       1  UNL1        0.1026
     21 C          49.6266   12.0694  -15.2336 C.ar    1  UNL1        0.2248
     22 N          50.4415   12.7248  -14.3593 N.ar    1  UNL1       -0.2101
     23 C          51.6400   13.2422  -14.7349 C.ar    1  UNL1        0.1021
     24 C          52.0776   13.1140  -16.0527 C.ar    1  UNL1        0.0209
     25 C          51.2710   12.4472  -16.9832 C.ar    1  UNL1        0.0060
     26 C          51.6853   12.3072  -18.3144 C.ar    1  UNL1        0.0003
     27 C          50.8760   11.6408  -19.2363 C.ar    1  UNL1        0.0045
     28 C          49.6429   11.0945  -18.8432 C.ar    1  UNL1        0.0537
     29 C          49.2184   11.2455  -17.5117 C.ar    1  UNL1        0.0092
     30 C          50.0261   11.9147  -16.5751 C.ar    1  UNL1        0.0534
     31 C          48.1350   11.2318  -13.4391 C.3     1  UNL1        0.2542
     32 O          48.3994   11.5530  -14.7995 O.3     1  UNL1       -0.4561
     33 C          50.7588   17.8736  -25.6314 C.3     1  UNL1        0.0867
     34 C          51.2891   17.4826  -27.0251 C.3     1  UNL1        0.0244
     35 C          49.6395   18.9203  -25.7759 C.3     1  UNL1        0.0244
     36 C          51.9190   18.4883  -24.8191 C.3     1  UNL1        0.0244
@<TRIPOS>BOND
     1    31    32    1
     2    32    21    1
     3    21    22   ar
     4    22    23   ar
     5    23    24   ar
     6    24    25   ar
     7    25    26   ar
     8    26    27   ar
     9    27    28   ar
    10    28     1    1
    11     1     2    2
    12     1     3   am
    13     3     4    1
    14     4     5    1
    15     5     6    1
    16     6     7    1
    17     7     8    1
    18     6     9    1
    19     9    10   am
    20    10    11    2
    21    10    12    1
    22    12    13   ar
    23    13    14   ar
    24    14    33    1
    25    33    34    1
    26    33    35    1
    27    33    36    1
    28    14    15   ar
    29    15    16   ar
    30    16    17    1
    31    17    18    1
    32    28    29   ar
    33    29    30   ar
    34    30    21   ar
    35    30    25   ar
    36     8     3    1
    37    16    12   ar
    38    17     6    1
    39     9    19    1
    40    18    20    1
@<TRIPOS>MOLECULE
*****
 36 40 0 0 0
SMALL
GASTEIGER

@<TRIPOS>ATOM
      1 C          51.3746    9.8116  -25.9507 C.2     1  UNL1        0.2490
      2 O          52.4121    9.0940  -25.9453 O.2     1  UNL1       -0.2699
      3 N          51.1879   10.7874  -24.9092 N.am    1  UNL1       -0.2760
      4 C          49.9127   10.8740  -24.1905 C.3     1  UNL1        0.0954
      5 C          49.4766   12.3391  -23.9969 C.3     1  UNL1        0.0407
      6 C          50.6531   13.3713  -24.0466 C.3     1  UNL1        0.0731
      7 C          51.9585   12.7067  -23.5275 C.3     1  UNL1        0.0407
      8 C          52.3610   11.4656  -24.3467 C.3     1  UNL1        0.0954
      9 N          50.8364   13.7904  -25.4618 N.am    1  UNL1       -0.3015
     10 C          49.9527   14.7481  -26.0671 C.2     1  UNL1        0.2650
     11 O          49.9247   14.9065  -27.3160 O.2     1  UNL1       -0.2684
     12 C          49.1264   15.5556  -25.1803 C.ar    1  UNL1        0.1523
     13 N          48.2687   16.5333  -25.5182 N.ar    1  UNL1       -0.1650
     14 N          47.8502   17.0845  -24.3828 N.ar    1  UNL1       -0.2533
     15 C          48.4682   16.4877  -23.3331 C.ar    1  UNL1        0.0932
     16 C          49.2666   15.4779  -23.8258 C.ar    1  UNL1        0.0313
     17 C          50.3422   14.6507  -23.1727 C.3     1  UNL1        0.0855
     18 S          49.9614   14.2962  -21.4107 S.3     1  UNL1       -0.1627
     19 H          51.5689   13.3562  -26.0659 H       1  UNL1        0.1497
     20 H          48.5754   14.1318  -21.5993 H       1  UNL1        0.1026
     21 C          47.2127   11.2079  -28.2604 C.ar    1  UNL1        0.2248
     22 N          46.3184   11.0231  -29.2723 N.ar    1  UNL1       -0.2101
     23 C          46.4607   10.0350  -30.1934 C.ar    1  UNL1        0.1021
     24 C          47.5484    9.1648  -30.1266 C.ar    1  UNL1        0.0209
     25 C          48.4910    9.3200  -29.1028 C.ar    1  UNL1        0.0060
     26 C          49.5915    8.4575  -29.0106 C.ar    1  UNL1        0.0003
     27 C          50.5274    8.6186  -27.9873 C.ar    1  UNL1        0.0045
     28 C          50.3861    9.6494  -27.0435 C.ar    1  UNL1        0.0537
     29 C          49.2758   10.5076  -27.1252 C.ar    1  UNL1        0.0092
     30 C          48.3273   10.3542  -28.1521 C.ar    1  UNL1        0.0534
     31 C          46.4308   13.4875  -27.6785 C.3     1  UNL1        0.2542
     32 O          47.0234   12.2410  -27.3341 O.3     1  UNL1       -0.4561
     33 C          46.9458   18.2493  -24.3074 C.3     1  UNL1        0.0867
     34 C          45.8728   18.1479  -25.4097 C.3     1  UNL1        0.0244
     35 C          46.2696   18.2790  -22.9250 C.3     1  UNL1        0.0244
     36 C          47.7344   19.5613  -24.5088 C.3     1  UNL1        0.0244
@<TRIPOS>BOND
     1    31    32    1
     2    32    21    1
     3    21    22   ar
     4    22    23   ar
     5    23    24   ar
     6    24    25   ar
     7    25    26   ar
     8    26    27   ar
     9    27    28   ar
    10    28     1    1
    11     1     2    2
    12     1     3   am
    13     3     4    1
    14     4     5    1
    15     5     6    1
    16     6     7    1
    17     7     8    1
    18     6     9    1
    19     9    10   am
    20    10    11    2
    21    10    12    1
    22    12    13   ar
    23    13    14   ar
    24    14    33    1
    25    33    34    1
    26    33    35    1
    27    33    36    1
    28    14    15   ar
    29    15    16   ar
    30    16    17    1
    31    17    18    1
    32    28    29   ar
    33    29    30   ar
    34    30    21   ar
    35    30    25   ar
    36     8     3    1
    37    16    12   ar
    38    17     6    1
    39     9    19    1
    40    18    20    1
@<TRIPOS>MOLECULE
*****
 36 40 0 0 0
SMALL
GASTEIGER

@<TRIPOS>ATOM
      1 C          46.9666   10.5561  -27.9864 C.2     1  UNL1        0.2490
      2 O          45.8777   10.2014  -28.5156 O.2     1  UNL1       -0.2699
      3 N          46.9583   11.5864  -26.9814 N.am    1  UNL1       -0.2760
      4 C          47.8988   12.7088  -27.0585 C.3     1  UNL1        0.0954
      5 C          48.5036   13.0294  -25.6781 C.3     1  UNL1        0.0407
      6 C          47.6291   12.5564  -24.4683 C.3     1  UNL1        0.0731
      7 C          46.1259   12.5869  -24.8617 C.3     1  UNL1        0.0407
      8 C          45.8098   11.6909  -26.0744 C.3     1  UNL1        0.0954
      9 N          48.0273   11.1637  -24.1309 N.am    1  UNL1       -0.3015
     10 C          49.2265   10.9004  -23.3845 C.2     1  UNL1        0.2650
     11 O          49.7136    9.7407  -23.3267 O.2     1  UNL1       -0.2684
     12 C          49.8291   12.0140  -22.6646 C.ar    1  UNL1        0.1523
     13 N          50.9155   11.9915  -21.8741 N.ar    1  UNL1       -0.1650
     14 N          51.0096   13.1958  -21.3186 N.ar    1  UNL1       -0.2533
     15 C          49.9679   13.9651  -21.7222 C.ar    1  UNL1        0.0932
     16 C          49.2173   13.2321  -22.6162 C.ar    1  UNL1        0.0313
     17 C          47.8491   13.4709  -23.1984 C.3     1  UNL1        0.0855
     18 S          47.5246   15.2571  -23.4799 S.3     1  UNL1       -0.1627
     19 H          47.4823   10.3440  -24.4786 H       1  UNL1        0.1497
     20 H          48.8344   15.5725  -23.8901 H       1  UNL1        0.1026
     21 C          49.4533    7.4833  -30.9830 C.ar    1  UNL1        0.2248
     22 N          50.6251    6.8760  -31.3238 N.ar    1  UNL1       -0.2101
     23 C          51.7762    7.0836  -30.6333 C.ar    1  UNL1        0.1021
     24 C          51.7900    7.9416  -29.5340 C.ar    1  UNL1        0.0209
     25 C          50.6077    8.5864  -29.1503 C.ar    1  UNL1        0.0060
     26 C          50.5930    9.4510  -28.0477 C.ar    1  UNL1        0.0003
     27 C          49.4105   10.0906  -27.6714 C.ar    1  UNL1        0.0045
     28 C          48.2239    9.8852  -28.3946 C.ar    1  UNL1        0.0537
     29 C          48.2324    9.0077  -29.4927 C.ar    1  UNL1        0.0092
     30 C          49.4181    8.3587  -29.8804 C.ar    1  UNL1        0.0534
     31 C          48.1771    6.1584  -32.6450 C.3     1  UNL1        0.2542
     32 O          48.2917    7.2378  -31.7255 O.3     1  UNL1       -0.4561
     33 C          52.0307   13.5746  -20.3214 C.3     1  UNL1        0.0867
     34 C          51.7977   12.7916  -19.0141 C.3     1  UNL1        0.0244
     35 C          53.4290   13.2521  -20.8782 C.3     1  UNL1        0.0244
     36 C          51.9502   15.0847  -20.0105 C.3     1  UNL1        0.0244
@<TRIPOS>BOND
     1    31    32    1
     2    32    21    1
     3    21    22   ar
     4    22    23   ar
     5    23    24   ar
     6    24    25   ar
     7    25    26   ar
     8    26    27   ar
     9    27    28   ar
    10    28     1    1
    11     1     2    2
    12     1     3   am
    13     3     4    1
    14     4     5    1
    15     5     6    1
    16     6     7    1
    17     7     8    1
    18     6     9    1
    19     9    10   am
    20    10    11    2
    21    10    12    1
    22    12    13   ar
    23    13    14   ar
    24    14    33    1
    25    33    34    1
    26    33    35    1
    27    33    36    1
    28    14    15   ar
    29    15    16   ar
    30    16    17    1
    31    17    18    1
    32    28    29   ar
    33    29    30   ar
    34    30    21   ar
    35    30    25   ar
    36     8     3    1
    37    16    12   ar
    38    17     6    1
    39     9    19    1
    40    18    20    1
@<TRIPOS>MOLECULE
*****
 36 40 0 0 0
SMALL
GASTEIGER

@<TRIPOS>ATOM
      1 C          46.2499   13.2806  -28.3412 C.2     1  UNL1        0.2490
      2 O          45.3606   13.7181  -29.1217 O.2     1  UNL1       -0.2699
      3 N          46.6259   14.0629  -27.1930 N.am    1  UNL1       -0.2760
      4 C          48.0394   14.3132  -26.8935 C.3     1  UNL1        0.0954
      5 C          48.3304   14.1540  -25.3888 C.3     1  UNL1        0.0407
      6 C          47.0780   14.3460  -24.4687 C.3     1  UNL1        0.0731
      7 C          46.0871   15.3439  -25.1301 C.3     1  UNL1        0.0407
      8 C          45.6082   14.8757  -26.5175 C.3     1  UNL1        0.0954
      9 N          46.4191   13.0224  -24.3084 N.am    1  UNL1       -0.3015
     10 C          46.9496   12.0398  -23.4042 C.2     1  UNL1        0.2650
     11 O          46.5732   10.8393  -23.4566 O.2     1  UNL1       -0.2684
     12 C          47.9024   12.4938  -22.4006 C.ar    1  UNL1        0.1523
     13 N          48.4881   11.7674  -21.4336 N.ar    1  UNL1       -0.1650
     14 N          49.1638   12.6207  -20.6700 N.ar    1  UNL1       -0.2533
     15 C          48.9762   13.8847  -21.1252 C.ar    1  UNL1        0.0932
     16 C          48.1955   13.8184  -22.2592 C.ar    1  UNL1        0.0313
     17 C          47.4826   14.8899  -23.0411 C.3     1  UNL1        0.0855
     18 S          48.4265   16.4659  -23.0652 S.3     1  UNL1       -0.1627
     19 H          45.5957   12.7520  -24.8904 H       1  UNL1        0.1497
     20 H          49.6967   15.8647  -23.1571 H       1  UNL1        0.1026
     21 C          49.5809    9.7631  -27.2753 C.ar    1  UNL1        0.2248
     22 N          50.1315    8.5490  -27.5597 N.ar    1  UNL1       -0.2101
     23 C          49.6973    7.7807  -28.5924 C.ar    1  UNL1        0.1021
     24 C          48.6548    8.2231  -29.4061 C.ar    1  UNL1        0.0209
     25 C          48.0607    9.4647  -29.1482 C.ar    1  UNL1        0.0060
     26 C          47.0137    9.9345  -29.9523 C.ar    1  UNL1        0.0003
     27 C          46.4260   11.1731  -29.6888 C.ar    1  UNL1        0.0045
     28 C          46.8672   11.9604  -28.6123 C.ar    1  UNL1        0.0537
     29 C          47.9266   11.4980  -27.8124 C.ar    1  UNL1        0.0092
     30 C          48.5253   10.2517  -28.0690 C.ar    1  UNL1        0.0534
     31 C          50.2138    9.9881  -24.8888 C.3     1  UNL1        0.2542
     32 O          50.0627   10.5194  -26.1997 O.3     1  UNL1       -0.4561
     33 C          49.8975   12.2409  -19.4461 C.3     1  UNL1        0.0867
     34 C          51.3116   12.8540  -19.4750 C.3     1  UNL1        0.0244
     35 C          49.1323   12.7567  -18.2142 C.3     1  UNL1        0.0244
     36 C          50.0296   10.7057  -19.3484 C.3     1  UNL1        0.0244
@<TRIPOS>BOND
     1    31    32    1
     2    32    21    1
     3    21    22   ar
     4    22    23   ar
     5    23    24   ar
     6    24    25   ar
     7    25    26   ar
     8    26    27   ar
     9    27    28   ar
    10    28     1    1
    11     1     2    2
    12     1     3   am
    13     3     4    1
    14     4     5    1
    15     5     6    1
    16     6     7    1
    17     7     8    1
    18     6     9    1
    19     9    10   am
    20    10    11    2
    21    10    12    1
    22    12    13   ar
    23    13    14   ar
    24    14    33    1
    25    33    34    1
    26    33    35    1
    27    33    36    1
    28    14    15   ar
    29    15    16   ar
    30    16    17    1
    31    17    18    1
    32    28    29   ar
    33    29    30   ar
    34    30    21   ar
    35    30    25   ar
    36     8     3    1
    37    16    12   ar
    38    17     6    1
    39     9    19    1
    40    18    20    1
