@<TRIPOS>MOLECULE
*****
 45 49 0 0 0
SMALL
GASTEIGER

@<TRIPOS>ATOM
      1 C          -8.8938  -11.6521   31.8082 C.3     1  UNL1        0.1562
      2 C          -8.9007  -12.5310   33.0651 C.3     1  UNL1        0.0622
      3 C         -10.0849  -12.0411   33.9172 C.3     1  UNL1        0.1294
      4 O          -9.7116  -12.0304   35.2754 O.3     1  UNL1       -0.3808
      5 C         -10.3230  -10.5889   33.4482 C.3     1  UNL1        0.1264
      6 N          -9.6966  -10.4825   32.1391 N.am    1  UNL1       -0.2544
      7 C          -9.9704   -9.4173   31.2100 C.2     1  UNL1        0.3081
      8 O          -9.6579   -9.5557   29.9958 O.2     1  UNL1       -0.2522
      9 N         -10.5917   -8.1992   31.6553 N.am    1  UNL1       -0.2657
     10 H         -10.4719  -11.6470   35.7880 H       1  UNL1        0.2107
     11 H         -11.1339   -8.2089   32.5468 H       1  UNL1        0.1565
     12 C         -10.5068   -6.9540   30.9399 C.ar    1  UNL1        0.0857
     13 C          -9.2661   -6.4543   30.5016 C.ar    1  UNL1        0.0187
     14 C          -9.1912   -5.2246   29.8425 C.ar    1  UNL1        0.0129
     15 C         -10.3492   -4.4745   29.6239 C.ar    1  UNL1        0.0608
     16 CL        -10.2512   -2.9292   28.7994 Cl      1  UNL1       -0.0821
     17 C         -11.5842   -4.9515   30.0720 C.ar    1  UNL1        0.0493
     18 C         -11.6678   -6.1851   30.7343 C.ar    1  UNL1        0.1479
     19 O         -12.9023   -6.6537   31.1824 O.3     1  UNL1       -0.5042
     20 H         -13.7537   -6.1214   31.0462 H       1  UNL1        0.2922
     21 C         -11.2968  -12.9619   33.6817 C.ar    1  UNL1        0.0310
     22 C         -12.1997  -12.7120   32.6226 C.ar    1  UNL1        0.0026
     23 C         -13.2710  -13.5733   32.3742 C.ar    1  UNL1        0.0295
     24 C         -13.4470  -14.7156   33.1535 C.ar    1  UNL1        0.1424
     25 F         -14.4850  -15.5523   32.9068 F       1  UNL1       -0.2041
     26 C         -12.5403  -15.0089   34.1718 C.ar    1  UNL1        0.0590
     27 C         -11.4637  -14.1536   34.4289 C.ar    1  UNL1        0.1406
     28 F         -10.5773  -14.5137   35.3912 F       1  UNL1       -0.2044
     29 O          -6.7103  -10.7658   32.2225 O.2     1  UNL1       -0.2730
     30 C          -7.4862  -11.2866   31.3776 C.2     1  UNL1        0.2454
     31 N          -7.0462  -11.4085   30.0165 N.am    1  UNL1       -0.2680
     32 H          -6.4338  -10.6595   29.6227 H       1  UNL1        0.1563
     33 C          -7.4017  -12.5079   29.1749 C.ar    1  UNL1        0.1346
     34 C          -6.4154  -13.1945   28.4601 C.ar    1  UNL1        0.0406
     35 C          -6.7851  -14.2543   27.6299 C.ar    1  UNL1        0.0736
     36 C          -8.1321  -14.6357   27.5335 C.ar    1  UNL1        0.2466
     37 C          -9.0806  -13.9500   28.3067 C.ar    1  UNL1        0.1691
     38 N          -8.6971  -12.9141   29.0976 N.ar    1  UNL1       -0.2228
     39 N          -8.5321  -15.7147   26.6650 N.am    1  UNL1       -0.0841
     40 C          -8.9411  -16.8961   27.2226 C.2     1  UNL1        0.2905
     41 C          -9.3465  -17.9618   26.4168 C.2     1  UNL1        0.0758
     42 C          -9.3308  -17.8174   25.0319 C.2     1  UNL1        0.0161
     43 C          -8.9078  -16.6161   24.4672 C.2     1  UNL1        0.1156
     44 C          -8.5037  -15.5661   25.2990 C.2     1  UNL1        0.4230
     45 O          -8.1002  -14.4914   24.7746 O.2     1  UNL1       -0.2135
@<TRIPOS>BOND
     1    29    30    2
     2    30    31   am
     3    31    33    1
     4    33    34   ar
     5    34    35   ar
     6    35    36   ar
     7    36    39    1
     8    39    40    1
     9    40    41    2
    10    41    42    1
    11    42    43    2
    12    43    44    1
    13    44    45    2
    14    36    37   ar
    15    37    38   ar
    16    30     1    1
    17     1     2    1
    18     2     3    1
    19     3     4    1
    20     3    21    1
    21    21    22   ar
    22    22    23   ar
    23    23    24   ar
    24    24    25    1
    25    24    26   ar
    26    26    27   ar
    27    27    28    1
    28     3     5    1
    29     5     6    1
    30     6     7   am
    31     7     8    2
    32     7     9   am
    33     9    12    1
    34    12    13   ar
    35    13    14   ar
    36    14    15   ar
    37    15    16    1
    38    15    17   ar
    39    17    18   ar
    40    18    19    1
    41    38    33   ar
    42     6     1    1
    43    18    12   ar
    44    44    39    1
    45    27    21   ar
    46    31    32    1
    47     4    10    1
    48     9    11    1
    49    19    20    1
@<TRIPOS>MOLECULE
*****
 45 49 0 0 0
SMALL
GASTEIGER

@<TRIPOS>ATOM
      1 C          -8.8701  -11.7056   31.8369 C.3     1  UNL1        0.1562
      2 C          -8.8650  -12.5840   33.0942 C.3     1  UNL1        0.0622
      3 C         -10.0530  -12.1067   33.9483 C.3     1  UNL1        0.1294
      4 O          -9.6772  -12.0913   35.3058 O.3     1  UNL1       -0.3808
      5 C         -10.3079  -10.6574   33.4792 C.3     1  UNL1        0.1264
      6 N          -9.6851  -10.5447   32.1688 N.am    1  UNL1       -0.2544
      7 C          -9.9724   -9.4830   31.2397 C.2     1  UNL1        0.3081
      8 O          -9.6606   -9.6185   30.0251 O.2     1  UNL1       -0.2522
      9 N         -10.6061   -8.2716   31.6857 N.am    1  UNL1       -0.2657
     10 H         -10.4407  -11.7161   35.8196 H       1  UNL1        0.2107
     11 H         -11.1466   -8.2869   32.5782 H       1  UNL1        0.1565
     12 C         -10.5363   -7.0259   30.9696 C.ar    1  UNL1        0.0857
     13 C          -9.3051   -6.5258   30.5058 C.ar    1  UNL1        0.0187
     14 C          -9.2440   -5.2956   29.8463 C.ar    1  UNL1        0.0129
     15 C         -10.4063   -4.5454   29.6524 C.ar    1  UNL1        0.0608
     16 CL        -10.3256   -2.9995   28.8273 Cl      1  UNL1       -0.0821
     17 C         -11.6316   -5.0228   30.1260 C.ar    1  UNL1        0.0493
     18 C         -11.7014   -6.2569   30.7889 C.ar    1  UNL1        0.1479
     19 O         -12.9262   -6.7259   31.2624 O.3     1  UNL1       -0.5042
     20 H         -13.7803   -6.1935   31.1445 H       1  UNL1        0.2922
     21 C         -11.2551  -13.0409   33.7155 C.ar    1  UNL1        0.0310
     22 C         -11.4379  -14.1957   34.5106 C.ar    1  UNL1        0.0026
     23 C         -12.5538  -15.0178   34.3367 C.ar    1  UNL1        0.0295
     24 C         -13.5245  -14.6909   33.3911 C.ar    1  UNL1        0.1424
     25 F         -14.6089  -15.4882   33.2280 F       1  UNL1       -0.2041
     26 C         -13.3903  -13.5300   32.6299 C.ar    1  UNL1        0.0590
     27 C         -12.2772  -12.6993   32.7963 C.ar    1  UNL1        0.1406
     28 F         -12.2226  -11.5520   32.0737 F       1  UNL1       -0.2044
     29 O          -6.6910  -10.8081   32.2504 O.2     1  UNL1       -0.2730
     30 C          -7.4675  -11.3248   31.4035 C.2     1  UNL1        0.2454
     31 N          -7.0336  -11.4278   30.0388 N.am    1  UNL1       -0.2680
     32 H          -6.4286  -10.6698   29.6507 H       1  UNL1        0.1563
     33 C          -7.3853  -12.5200   29.1864 C.ar    1  UNL1        0.1346
     34 C          -6.3950  -13.2052   28.4758 C.ar    1  UNL1        0.0406
     35 C          -6.7610  -14.2578   27.6348 C.ar    1  UNL1        0.0736
     36 C          -8.1084  -14.6336   27.5236 C.ar    1  UNL1        0.2466
     37 C          -9.0615  -13.9498   28.2929 C.ar    1  UNL1        0.1691
     38 N          -8.6814  -12.9208   29.0945 N.ar    1  UNL1       -0.2228
     39 N          -8.5044  -15.7050   26.6439 N.am    1  UNL1       -0.0841
     40 C          -8.9161  -16.8911   27.1894 C.2     1  UNL1        0.2905
     41 C          -9.3177  -17.9498   26.3725 C.2     1  UNL1        0.0758
     42 C          -9.2954  -17.7935   24.9890 C.2     1  UNL1        0.0161
     43 C          -8.8697  -16.5875   24.4367 C.2     1  UNL1        0.1156
     44 C          -8.4694  -15.5447   25.2794 C.2     1  UNL1        0.4230
     45 O          -8.0634  -14.4656   24.7662 O.2     1  UNL1       -0.2135
@<TRIPOS>BOND
     1    29    30    2
     2    30    31   am
     3    31    33    1
     4    33    34   ar
     5    34    35   ar
     6    35    36   ar
     7    36    39    1
     8    39    40    1
     9    40    41    2
    10    41    42    1
    11    42    43    2
    12    43    44    1
    13    44    45    2
    14    36    37   ar
    15    37    38   ar
    16    30     1    1
    17     1     2    1
    18     2     3    1
    19     3     4    1
    20     3    21    1
    21    21    22   ar
    22    22    23   ar
    23    23    24   ar
    24    24    25    1
    25    24    26   ar
    26    26    27   ar
    27    27    28    1
    28     3     5    1
    29     5     6    1
    30     6     7   am
    31     7     8    2
    32     7     9   am
    33     9    12    1
    34    12    13   ar
    35    13    14   ar
    36    14    15   ar
    37    15    16    1
    38    15    17   ar
    39    17    18   ar
    40    18    19    1
    41    38    33   ar
    42     6     1    1
    43    18    12   ar
    44    44    39    1
    45    27    21   ar
    46    31    32    1
    47     4    10    1
    48     9    11    1
    49    19    20    1
@<TRIPOS>MOLECULE
*****
 45 49 0 0 0
SMALL
GASTEIGER

@<TRIPOS>ATOM
      1 C          -8.9445  -11.6864   31.9795 C.3     1  UNL1        0.1562
      2 C          -8.9787  -12.5796   33.2258 C.3     1  UNL1        0.0622
      3 C         -10.1719  -12.0890   34.0650 C.3     1  UNL1        0.1294
      4 O          -9.8197  -12.0973   35.4289 O.3     1  UNL1       -0.3808
      5 C         -10.3899  -10.6294   33.6094 C.3     1  UNL1        0.1264
      6 N          -9.7422  -10.5135   32.3114 N.am    1  UNL1       -0.2544
      7 C          -9.9921   -9.4353   31.3906 C.2     1  UNL1        0.3081
      8 O          -9.6619   -9.5625   30.1800 O.2     1  UNL1       -0.2522
      9 N         -10.6096   -8.2169   31.8405 N.am    1  UNL1       -0.2657
     10 H         -10.5846  -11.7131   35.9340 H       1  UNL1        0.2107
     11 H         -11.1658   -8.2321   32.7232 H       1  UNL1        0.1565
     12 C         -10.5027   -6.9644   31.1410 C.ar    1  UNL1        0.0857
     13 C         -11.6321   -6.1487   30.9407 C.ar    1  UNL1        0.0187
     14 C         -11.5241   -4.9533   30.2255 C.ar    1  UNL1        0.0129
     15 C         -10.2931   -4.5641   29.6921 C.ar    1  UNL1        0.0608
     16 CL        -10.1616   -3.0645   28.7914 Cl      1  UNL1       -0.0821
     17 C          -9.1689   -5.3758   29.8679 C.ar    1  UNL1        0.0493
     18 C          -9.2690   -6.5771   30.5848 C.ar    1  UNL1        0.1479
     19 O          -8.1447   -7.3844   30.7534 O.3     1  UNL1       -0.5042
     20 H          -7.2442   -7.1288   30.3650 H       1  UNL1        0.2922
     21 C         -11.3879  -12.9962   33.8000 C.ar    1  UNL1        0.0310
     22 C         -12.3267  -12.6712   32.7938 C.ar    1  UNL1        0.0026
     23 C         -13.4028  -13.5173   32.5158 C.ar    1  UNL1        0.0295
     24 C         -13.5487  -14.7170   33.2106 C.ar    1  UNL1        0.1424
     25 F         -14.5916  -15.5384   32.9351 F       1  UNL1       -0.2041
     26 C         -12.6073  -15.0820   34.1726 C.ar    1  UNL1        0.0590
     27 C         -11.5256  -14.2426   34.4586 C.ar    1  UNL1        0.1406
     28 F         -10.6061  -14.6701   35.3604 F       1  UNL1       -0.2044
     29 O          -6.7410  -10.8831   32.4529 O.2     1  UNL1       -0.2730
     30 C          -7.5273  -11.3284   31.5751 C.2     1  UNL1        0.2454
     31 N          -7.0868  -11.3723   30.2093 N.am    1  UNL1       -0.2680
     32 H          -6.4551  -10.6145   29.8659 H       1  UNL1        0.1563
     33 C          -7.4670  -12.4053   29.2975 C.ar    1  UNL1        0.1346
     34 C          -8.8135  -12.7507   29.1472 C.ar    1  UNL1        0.0406
     35 C          -9.1627  -13.7744   28.2645 C.ar    1  UNL1        0.0736
     36 C          -8.1701  -14.4328   27.5226 C.ar    1  UNL1        0.2466
     37 C          -6.8377  -14.0194   27.6693 C.ar    1  UNL1        0.1691
     38 N          -6.5222  -13.0289   28.5440 N.ar    1  UNL1       -0.2228
     39 N          -8.5127  -15.5055   26.6224 N.am    1  UNL1       -0.0841
     40 C          -8.4881  -15.2711   25.2740 C.2     1  UNL1        0.2905
     41 C          -8.8029  -16.2861   24.3684 C.2     1  UNL1        0.0758
     42 C          -9.1471  -17.5477   24.8467 C.2     1  UNL1        0.0161
     43 C          -9.1776  -17.7814   26.2198 C.2     1  UNL1        0.1156
     44 C          -8.8609  -16.7446   27.1043 C.2     1  UNL1        0.4230
     45 O          -8.9154  -16.9625   28.3462 O.2     1  UNL1       -0.2135
@<TRIPOS>BOND
     1    29    30    2
     2    30    31   am
     3    31    33    1
     4    33    34   ar
     5    34    35   ar
     6    35    36   ar
     7    36    39    1
     8    39    40    1
     9    40    41    2
    10    41    42    1
    11    42    43    2
    12    43    44    1
    13    44    45    2
    14    36    37   ar
    15    37    38   ar
    16    30     1    1
    17     1     2    1
    18     2     3    1
    19     3     4    1
    20     3    21    1
    21    21    22   ar
    22    22    23   ar
    23    23    24   ar
    24    24    25    1
    25    24    26   ar
    26    26    27   ar
    27    27    28    1
    28     3     5    1
    29     5     6    1
    30     6     7   am
    31     7     8    2
    32     7     9   am
    33     9    12    1
    34    12    13   ar
    35    13    14   ar
    36    14    15   ar
    37    15    16    1
    38    15    17   ar
    39    17    18   ar
    40    18    19    1
    41    38    33   ar
    42     6     1    1
    43    18    12   ar
    44    44    39    1
    45    27    21   ar
    46    31    32    1
    47     4    10    1
    48     9    11    1
    49    19    20    1
@<TRIPOS>MOLECULE
*****
 45 49 0 0 0
SMALL
GASTEIGER

@<TRIPOS>ATOM
      1 C         -11.8891   -9.9174   32.2361 C.3     1  UNL1        0.1562
      2 C         -12.6892  -10.9946   31.4933 C.3     1  UNL1        0.0622
      3 C         -11.7750  -12.2309   31.4283 C.3     1  UNL1        0.1294
      4 O         -11.9003  -12.8399   30.1643 O.3     1  UNL1       -0.3808
      5 C         -10.3464  -11.6626   31.5748 C.3     1  UNL1        0.1264
      6 N         -10.4982  -10.3464   32.1766 N.am    1  UNL1       -0.2544
      7 C          -9.4159   -9.6223   32.7908 C.2     1  UNL1        0.3081
      8 O          -9.6720   -8.6615   33.5667 O.2     1  UNL1       -0.2522
      9 N          -8.0496   -9.9827   32.5236 N.am    1  UNL1       -0.2657
     10 H         -11.2501  -13.5908   30.1322 H       1  UNL1        0.2107
     11 H          -7.8437  -10.9417   32.1675 H       1  UNL1        0.1565
     12 C          -6.9381   -9.0900   32.7166 C.ar    1  UNL1        0.0857
     13 C          -7.1453   -7.7316   33.0214 C.ar    1  UNL1        0.0187
     14 C          -6.0590   -6.8652   33.1675 C.ar    1  UNL1        0.0129
     15 C          -4.7560   -7.3399   32.9997 C.ar    1  UNL1        0.0608
     16 CL         -3.3944   -6.2486   33.1801 Cl      1  UNL1       -0.0821
     17 C          -4.5389   -8.6825   32.6775 C.ar    1  UNL1        0.0493
     18 C          -5.6240   -9.5587   32.5293 C.ar    1  UNL1        0.1479
     19 O          -5.4011  -10.8961   32.2040 O.3     1  UNL1       -0.5042
     20 H          -4.4656  -11.2602   32.0652 H       1  UNL1        0.2922
     21 C         -12.1588  -13.2076   32.5556 C.ar    1  UNL1        0.0310
     22 C         -13.2936  -14.0423   32.4338 C.ar    1  UNL1        0.0026
     23 C         -13.6161  -14.9655   33.4313 C.ar    1  UNL1        0.0295
     24 C         -12.7999  -15.0984   34.5535 C.ar    1  UNL1        0.1424
     25 F         -13.1129  -15.9988   35.5177 F       1  UNL1       -0.2041
     26 C         -11.6482  -14.3208   34.6714 C.ar    1  UNL1        0.0590
     27 C         -11.3154  -13.3937   33.6783 C.ar    1  UNL1        0.1406
     28 F         -10.1545  -12.7038   33.8115 F       1  UNL1       -0.2044
     29 O         -12.9113   -7.7545   32.1919 O.2     1  UNL1       -0.2730
     30 C         -12.0974   -8.5398   31.6369 C.2     1  UNL1        0.2454
     31 N         -11.4866   -8.1430   30.3997 N.am    1  UNL1       -0.2680
     32 H         -12.0479   -7.5722   29.7286 H       1  UNL1        0.1563
     33 C         -10.1459   -8.4873   30.0433 C.ar    1  UNL1        0.1346
     34 C          -9.8717   -9.7204   29.4437 C.ar    1  UNL1        0.0406
     35 C          -8.5533  -10.0451   29.1192 C.ar    1  UNL1        0.0736
     36 C          -7.5200   -9.1308   29.3754 C.ar    1  UNL1        0.2466
     37 C          -7.8483   -7.8862   29.9330 C.ar    1  UNL1        0.1691
     38 N          -9.1375   -7.5990   30.2511 N.ar    1  UNL1       -0.2228
     39 N          -6.1511   -9.4598   29.0649 N.am    1  UNL1       -0.0841
     40 C          -5.2997   -8.4576   28.6847 C.2     1  UNL1        0.2905
     41 C          -3.9639   -8.7326   28.3856 C.2     1  UNL1        0.0758
     42 C          -3.4981  -10.0419   28.4744 C.2     1  UNL1        0.0161
     43 C          -4.3687  -11.0606   28.8552 C.2     1  UNL1        0.1156
     44 C          -5.7032  -10.7565   29.1456 C.2     1  UNL1        0.4230
     45 O          -6.4874  -11.6918   29.4664 O.2     1  UNL1       -0.2135
@<TRIPOS>BOND
     1    29    30    2
     2    30    31   am
     3    31    33    1
     4    33    34   ar
     5    34    35   ar
     6    35    36   ar
     7    36    39    1
     8    39    40    1
     9    40    41    2
    10    41    42    1
    11    42    43    2
    12    43    44    1
    13    44    45    2
    14    36    37   ar
    15    37    38   ar
    16    30     1    1
    17     1     2    1
    18     2     3    1
    19     3     4    1
    20     3    21    1
    21    21    22   ar
    22    22    23   ar
    23    23    24   ar
    24    24    25    1
    25    24    26   ar
    26    26    27   ar
    27    27    28    1
    28     3     5    1
    29     5     6    1
    30     6     7   am
    31     7     8    2
    32     7     9   am
    33     9    12    1
    34    12    13   ar
    35    13    14   ar
    36    14    15   ar
    37    15    16    1
    38    15    17   ar
    39    17    18   ar
    40    18    19    1
    41    38    33   ar
    42     6     1    1
    43    18    12   ar
    44    44    39    1
    45    27    21   ar
    46    31    32    1
    47     4    10    1
    48     9    11    1
    49    19    20    1
@<TRIPOS>MOLECULE
*****
 45 49 0 0 0
SMALL
GASTEIGER

@<TRIPOS>ATOM
      1 C          -8.4832   -8.5692   30.0822 C.3     1  UNL1        0.1562
      2 C          -8.7629   -7.9144   31.4406 C.3     1  UNL1        0.0622
      3 C          -8.0592   -8.7958   32.4878 C.3     1  UNL1        0.1294
      4 O          -8.8811   -8.9178   33.6253 O.3     1  UNL1       -0.3808
      5 C          -7.9319  -10.1764   31.8072 C.3     1  UNL1        0.1264
      6 N          -8.0673   -9.9334   30.3789 N.am    1  UNL1       -0.2544
      7 C          -7.6774  -10.8831   29.3695 C.2     1  UNL1        0.3081
      8 O          -7.5144  -10.4949   28.1805 O.2     1  UNL1       -0.2522
      9 N          -7.4772  -12.2671   29.7049 N.am    1  UNL1       -0.2657
     10 H          -8.4294   -9.5445   34.2505 H       1  UNL1        0.2107
     11 H          -7.2896  -12.5206   30.6997 H       1  UNL1        0.1565
     12 C          -7.5238  -13.3348   28.7420 C.ar    1  UNL1        0.0857
     13 C          -6.3684  -13.7280   28.0409 C.ar    1  UNL1        0.0187
     14 C          -6.4338  -14.7395   27.0793 C.ar    1  UNL1        0.0129
     15 C          -7.6525  -15.3614   26.7974 C.ar    1  UNL1        0.0608
     16 CL         -7.7320  -16.6284   25.5869 Cl      1  UNL1       -0.0821
     17 C          -8.8102  -14.9657   27.4734 C.ar    1  UNL1        0.0493
     18 C          -8.7528  -13.9512   28.4402 C.ar    1  UNL1        0.1479
     19 O          -9.9119  -13.5582   29.1083 O.3     1  UNL1       -0.5042
     20 H         -10.8092  -13.9862   28.9118 H       1  UNL1        0.2922
     21 C          -6.6997   -8.1692   32.8497 C.ar    1  UNL1        0.0310
     22 C          -5.5117   -8.9335   32.7869 C.ar    1  UNL1        0.0026
     23 C          -4.2708   -8.3556   33.0649 C.ar    1  UNL1        0.0295
     24 C          -4.1836   -7.0004   33.3798 C.ar    1  UNL1        0.1424
     25 F          -2.9771   -6.4413   33.6444 F       1  UNL1       -0.2041
     26 C          -5.3363   -6.2156   33.3990 C.ar    1  UNL1        0.0590
     27 C          -6.5841   -6.7839   33.1217 C.ar    1  UNL1        0.1406
     28 F          -7.6668   -5.9664   33.0957 F       1  UNL1       -0.2044
     29 O          -9.5426   -8.0874   27.9916 O.2     1  UNL1       -0.2730
     30 C          -9.6911   -8.5172   29.1664 C.2     1  UNL1        0.2454
     31 N         -11.0141   -8.8329   29.6260 N.am    1  UNL1       -0.2680
     32 H         -11.8113   -8.2502   29.2850 H       1  UNL1        0.1563
     33 C         -11.2944   -9.9089   30.5242 C.ar    1  UNL1        0.1346
     34 C         -11.8903   -9.6542   31.7632 C.ar    1  UNL1        0.0406
     35 C         -12.1398  -10.7169   32.6336 C.ar    1  UNL1        0.0736
     36 C         -11.8128  -12.0280   32.2551 C.ar    1  UNL1        0.2466
     37 C         -11.2619  -12.2415   30.9828 C.ar    1  UNL1        0.1691
     38 N         -11.0174  -11.1892   30.1590 N.ar    1  UNL1       -0.2228
     39 N         -12.0455  -13.1333   33.1510 N.am    1  UNL1       -0.0841
     40 C         -13.1696  -13.8962   32.9827 C.2     1  UNL1        0.2905
     41 C         -13.4263  -14.9818   33.8223 C.2     1  UNL1        0.0758
     42 C         -12.5278  -15.2864   34.8415 C.2     1  UNL1        0.0161
     43 C         -11.3880  -14.5043   35.0144 C.2     1  UNL1        0.1156
     44 C         -11.1579  -13.4201   34.1603 C.2     1  UNL1        0.4230
     45 O         -10.1340  -12.7051   34.3424 O.2     1  UNL1       -0.2135
@<TRIPOS>BOND
     1    29    30    2
     2    30    31   am
     3    31    33    1
     4    33    34   ar
     5    34    35   ar
     6    35    36   ar
     7    36    39    1
     8    39    40    1
     9    40    41    2
    10    41    42    1
    11    42    43    2
    12    43    44    1
    13    44    45    2
    14    36    37   ar
    15    37    38   ar
    16    30     1    1
    17     1     2    1
    18     2     3    1
    19     3     4    1
    20     3    21    1
    21    21    22   ar
    22    22    23   ar
    23    23    24   ar
    24    24    25    1
    25    24    26   ar
    26    26    27   ar
    27    27    28    1
    28     3     5    1
    29     5     6    1
    30     6     7   am
    31     7     8    2
    32     7     9   am
    33     9    12    1
    34    12    13   ar
    35    13    14   ar
    36    14    15   ar
    37    15    16    1
    38    15    17   ar
    39    17    18   ar
    40    18    19    1
    41    38    33   ar
    42     6     1    1
    43    18    12   ar
    44    44    39    1
    45    27    21   ar
    46    31    32    1
    47     4    10    1
    48     9    11    1
    49    19    20    1
