@<TRIPOS>MOLECULE
*****
 39 43 0 0 0
SMALL
GASTEIGER

@<TRIPOS>ATOM
      1 C          45.6794   12.3768  -31.7606 C.3     1  UNL1        0.0323
      2 C          45.9509   12.4886  -30.2849 C.ar    1  UNL1       -0.0083
      3 C          45.6589   13.6893  -29.6183 C.ar    1  UNL1       -0.0018
      4 C          45.9024   13.8190  -28.2502 C.ar    1  UNL1        0.0144
      5 C          46.4423   12.7537  -27.5208 C.ar    1  UNL1        0.0518
      6 C          46.6954   11.5361  -28.1728 C.ar    1  UNL1        0.0290
      7 C          46.4738   11.3977  -29.5546 C.ar    1  UNL1        0.0477
      8 N          46.6569   12.9039  -26.1072 N.am    1  UNL1       -0.2803
      9 C          47.8313   12.4266  -25.4225 C.2     1  UNL1        0.2495
     10 O          48.7911   11.9427  -26.0831 O.2     1  UNL1       -0.2698
     11 H          45.9324   13.4314  -25.5730 H       1  UNL1        0.1552
     12 C          47.9423   12.4963  -23.9455 C.ar    1  UNL1        0.0537
     13 C          47.5156   11.4361  -23.1263 C.ar    1  UNL1        0.0042
     14 C          47.6309   11.5239  -21.7363 C.ar    1  UNL1       -0.0028
     15 C          48.1833   12.6662  -21.1354 C.ar    1  UNL1       -0.0061
     16 C          48.5702   13.7421  -21.9500 C.ar    1  UNL1       -0.0028
     17 C          48.4538   13.6566  -23.3398 C.ar    1  UNL1        0.0042
     18 C          48.3167   12.7487  -19.6271 C.3     1  UNL1        0.0992
     19 N          49.5458   12.1146  -19.0974 N.3     1  UNL1       -0.2665
     20 C          49.3265   11.2152  -17.9399 C.3     1  UNL1        0.0899
     21 C          49.9047   11.8002  -16.6444 C.3     1  UNL1        0.0897
     22 N          51.3654   12.0237  -16.7593 N.3     1  UNL1       -0.2691
     23 C          51.8129   12.9968  -15.7508 C.3     1  UNL1        0.0897
     24 C          51.8082   12.4145  -18.1224 C.3     1  UNL1        0.0897
     25 C          50.6781   13.0546  -18.9398 C.3     1  UNL1        0.0899
     26 N          46.7213   10.1358  -30.2013 N.pl3   1  UNL1       -0.2827
     27 H          46.0645    9.8162  -30.9483 H       1  UNL1        0.1551
     28 C          47.8632    9.3130  -29.9243 C.ar    1  UNL1        0.2207
     29 N          48.1752    8.2608  -30.7281 N.ar    1  UNL1       -0.2120
     30 C          49.2401    7.4653  -30.4570 C.ar    1  UNL1        0.1034
     31 C          50.0307    7.7156  -29.3366 C.ar    1  UNL1        0.0400
     32 C          49.7028    8.8007  -28.5076 C.ar    1  UNL1        0.0872
     33 N          48.6192    9.5634  -28.8224 N.ar    1  UNL1       -0.2135
     34 C          50.4905    9.1236  -27.2900 C.ar    1  UNL1        0.0370
     35 C          50.1165    8.5873  -26.0454 C.ar    1  UNL1        0.0046
     36 C          50.8495    8.8922  -24.8976 C.ar    1  UNL1        0.0207
     37 C          51.9514    9.7410  -24.9955 C.ar    1  UNL1        0.0989
     38 N          52.2991   10.2670  -26.1987 N.ar    1  UNL1       -0.2423
     39 C          51.6046    9.9840  -27.3333 C.ar    1  UNL1        0.1003
@<TRIPOS>BOND
     1     1     2    1
     2     2     3   ar
     3     3     4   ar
     4     4     5   ar
     5     5     8    1
     6     8     9   am
     7     9    10    2
     8     9    12    1
     9    12    13   ar
    10    13    14   ar
    11    14    15   ar
    12    15    18    1
    13    18    19    1
    14    19    20    1
    15    20    21    1
    16    21    22    1
    17    22    23    1
    18    22    24    1
    19    24    25    1
    20    15    16   ar
    21    16    17   ar
    22     5     6   ar
    23     6     7   ar
    24     7    26    1
    25    26    28    1
    26    28    29   ar
    27    29    30   ar
    28    30    31   ar
    29    31    32   ar
    30    32    34    1
    31    34    35   ar
    32    35    36   ar
    33    36    37   ar
    34    37    38   ar
    35    38    39   ar
    36    32    33   ar
    37     7     2   ar
    38    33    28   ar
    39    17    12   ar
    40    39    34   ar
    41    25    19    1
    42     8    11    1
    43    26    27    1
@<TRIPOS>MOLECULE
*****
 39 43 0 0 0
SMALL
GASTEIGER

@<TRIPOS>ATOM
      1 C          49.4311    7.6347  -30.8230 C.3     1  UNL1        0.0323
      2 C          49.5419    8.3681  -29.5139 C.ar    1  UNL1       -0.0083
      3 C          50.7065    8.2304  -28.7419 C.ar    1  UNL1       -0.0018
      4 C          50.8337    8.8990  -27.5235 C.ar    1  UNL1        0.0144
      5 C          49.8014    9.7175  -27.0514 C.ar    1  UNL1        0.0518
      6 C          48.6527    9.8940  -27.8396 C.ar    1  UNL1        0.0290
      7 C          48.5025    9.2108  -29.0595 C.ar    1  UNL1        0.0477
      8 N          49.9693   10.4175  -25.8070 N.am    1  UNL1       -0.2803
      9 C          50.1002    9.7597  -24.5319 C.2     1  UNL1        0.2495
     10 O          50.1844    8.5020  -24.4791 O.2     1  UNL1       -0.2698
     11 H          50.0450   11.4570  -25.8564 H       1  UNL1        0.1552
     12 C          50.1442   10.5335  -23.2679 C.ar    1  UNL1        0.0537
     13 C          49.7737    9.9563  -22.0404 C.ar    1  UNL1        0.0042
     14 C          49.8240   10.7051  -20.8614 C.ar    1  UNL1       -0.0028
     15 C          50.2543   12.0413  -20.8807 C.ar    1  UNL1       -0.0061
     16 C          50.5835   12.6308  -22.1116 C.ar    1  UNL1       -0.0028
     17 C          50.5319   11.8841  -23.2915 C.ar    1  UNL1        0.0042
     18 C          50.3181   12.8434  -19.5954 C.3     1  UNL1        0.0992
     19 N          49.5143   12.2720  -18.4905 N.3     1  UNL1       -0.2665
     20 C          48.1601   12.8568  -18.3460 C.3     1  UNL1        0.0899
     21 C          48.0358   13.7015  -17.0709 C.3     1  UNL1        0.0897
     22 N          48.2976   12.8893  -15.8592 N.3     1  UNL1       -0.2691
     23 C          48.6514   13.7609  -14.7280 C.3     1  UNL1        0.0897
     24 C          49.3120   11.8224  -16.0582 C.3     1  UNL1        0.0897
     25 C          50.2632   12.1341  -17.2214 C.3     1  UNL1        0.0899
     26 N          47.3262    9.4194  -29.8623 N.pl3   1  UNL1       -0.2827
     27 H          46.8206    8.5866  -30.2397 H       1  UNL1        0.1551
     28 C          46.7636   10.7128  -30.1240 C.ar    1  UNL1        0.2207
     29 N          46.3777   11.0634  -31.3804 N.ar    1  UNL1       -0.2120
     30 C          45.8672   12.2937  -31.6374 C.ar    1  UNL1        0.1034
     31 C          45.7372   13.2242  -30.6078 C.ar    1  UNL1        0.0400
     32 C          46.1402   12.8592  -29.3130 C.ar    1  UNL1        0.0872
     33 N          46.6521   11.6133  -29.1115 N.ar    1  UNL1       -0.2135
     34 C          46.0433   13.7998  -28.1669 C.ar    1  UNL1        0.0370
     35 C          45.6692   15.1377  -28.3826 C.ar    1  UNL1        0.0046
     36 C          45.5823   16.0268  -27.3103 C.ar    1  UNL1        0.0207
     37 C          45.8787   15.5775  -26.0240 C.ar    1  UNL1        0.0989
     38 N          46.2532   14.2871  -25.8244 N.ar    1  UNL1       -0.2423
     39 C          46.3427   13.3990  -26.8504 C.ar    1  UNL1        0.1003
@<TRIPOS>BOND
     1     1     2    1
     2     2     3   ar
     3     3     4   ar
     4     4     5   ar
     5     5     8    1
     6     8     9   am
     7     9    10    2
     8     9    12    1
     9    12    13   ar
    10    13    14   ar
    11    14    15   ar
    12    15    18    1
    13    18    19    1
    14    19    20    1
    15    20    21    1
    16    21    22    1
    17    22    23    1
    18    22    24    1
    19    24    25    1
    20    15    16   ar
    21    16    17   ar
    22     5     6   ar
    23     6     7   ar
    24     7    26    1
    25    26    28    1
    26    28    29   ar
    27    29    30   ar
    28    30    31   ar
    29    31    32   ar
    30    32    34    1
    31    34    35   ar
    32    35    36   ar
    33    36    37   ar
    34    37    38   ar
    35    38    39   ar
    36    32    33   ar
    37     7     2   ar
    38    33    28   ar
    39    17    12   ar
    40    39    34   ar
    41    25    19    1
    42     8    11    1
    43    26    27    1
@<TRIPOS>MOLECULE
*****
 39 43 0 0 0
SMALL
GASTEIGER

@<TRIPOS>ATOM
      1 C          45.6065   12.6856  -31.3590 C.3     1  UNL1        0.0323
      2 C          46.0997   12.3485  -29.9781 C.ar    1  UNL1       -0.0083
      3 C          46.5575   11.0494  -29.7066 C.ar    1  UNL1       -0.0018
      4 C          47.0191   10.7109  -28.4337 C.ar    1  UNL1        0.0144
      5 C          47.0323   11.6617  -27.4070 C.ar    1  UNL1        0.0518
      6 C          46.6170   12.9742  -27.6839 C.ar    1  UNL1        0.0290
      7 C          46.1307   13.3241  -28.9562 C.ar    1  UNL1        0.0477
      8 N          47.5393   11.2951  -26.1126 N.am    1  UNL1       -0.2803
      9 C          46.9273   11.6973  -24.8719 C.2     1  UNL1        0.2495
     10 O          45.8265   12.3136  -24.8846 O.2     1  UNL1       -0.2698
     11 H          48.3700   10.6641  -26.0922 H       1  UNL1        0.1552
     12 C          47.5638   11.3963  -23.5670 C.ar    1  UNL1        0.0537
     13 C          48.8071   10.7440  -23.4896 C.ar    1  UNL1        0.0042
     14 C          49.3883   10.4713  -22.2482 C.ar    1  UNL1       -0.0028
     15 C          48.7467   10.8527  -21.0591 C.ar    1  UNL1       -0.0061
     16 C          47.4859   11.4656  -21.1343 C.ar    1  UNL1       -0.0028
     17 C          46.9026   11.7371  -22.3747 C.ar    1  UNL1        0.0042
     18 C          49.3897   10.5646  -19.7163 C.3     1  UNL1        0.0992
     19 N          49.4189   11.7296  -18.8023 N.3     1  UNL1       -0.2665
     20 C          50.6382   12.5656  -18.9071 C.3     1  UNL1        0.0899
     21 C          51.5226   12.4448  -17.6588 C.3     1  UNL1        0.0897
     22 N          50.7961   12.8743  -16.4404 N.3     1  UNL1       -0.2691
     23 C          51.4399   12.3177  -15.2404 C.3     1  UNL1        0.0897
     24 C          49.3430   12.5663  -16.4671 C.3     1  UNL1        0.0897
     25 C          49.0117   11.4071  -17.4164 C.3     1  UNL1        0.0899
     26 N          45.7275   14.6793  -29.2260 N.pl3   1  UNL1       -0.2827
     27 H          45.2952   14.9006  -30.1510 H       1  UNL1        0.1551
     28 C          45.8252   15.7417  -28.2672 C.ar    1  UNL1        0.2207
     29 N          44.7096   16.3701  -27.8077 N.ar    1  UNL1       -0.2120
     30 C          44.7982   17.3913  -26.9190 C.ar    1  UNL1        0.1034
     31 C          46.0462   17.8169  -26.4672 C.ar    1  UNL1        0.0400
     32 C          47.1953   17.1677  -26.9470 C.ar    1  UNL1        0.0872
     33 N          47.0498   16.1524  -27.8432 N.ar    1  UNL1       -0.2135
     34 C          48.5601   17.5718  -26.5210 C.ar    1  UNL1        0.0370
     35 C          49.6654   16.7617  -26.8348 C.ar    1  UNL1        0.0046
     36 C          50.9488   17.1338  -26.4318 C.ar    1  UNL1        0.0207
     37 C          51.1232   18.3123  -25.7074 C.ar    1  UNL1        0.0989
     38 N          50.0492   19.0833  -25.3954 N.ar    1  UNL1       -0.2423
     39 C          48.7885   18.7463  -25.7782 C.ar    1  UNL1        0.1003
@<TRIPOS>BOND
     1     1     2    1
     2     2     3   ar
     3     3     4   ar
     4     4     5   ar
     5     5     8    1
     6     8     9   am
     7     9    10    2
     8     9    12    1
     9    12    13   ar
    10    13    14   ar
    11    14    15   ar
    12    15    18    1
    13    18    19    1
    14    19    20    1
    15    20    21    1
    16    21    22    1
    17    22    23    1
    18    22    24    1
    19    24    25    1
    20    15    16   ar
    21    16    17   ar
    22     5     6   ar
    23     6     7   ar
    24     7    26    1
    25    26    28    1
    26    28    29   ar
    27    29    30   ar
    28    30    31   ar
    29    31    32   ar
    30    32    34    1
    31    34    35   ar
    32    35    36   ar
    33    36    37   ar
    34    37    38   ar
    35    38    39   ar
    36    32    33   ar
    37     7     2   ar
    38    33    28   ar
    39    17    12   ar
    40    39    34   ar
    41    25    19    1
    42     8    11    1
    43    26    27    1
@<TRIPOS>MOLECULE
*****
 39 43 0 0 0
SMALL
GASTEIGER

@<TRIPOS>ATOM
      1 C          49.0322    6.9124  -31.5351 C.3     1  UNL1        0.0323
      2 C          49.4888    7.7075  -30.3422 C.ar    1  UNL1       -0.0083
      3 C          50.7280    7.4148  -29.7506 C.ar    1  UNL1       -0.0018
      4 C          51.1739    8.1368  -28.6425 C.ar    1  UNL1        0.0144
      5 C          50.3920    9.1643  -28.1029 C.ar    1  UNL1        0.0518
      6 C          49.1721    9.4910  -28.7169 C.ar    1  UNL1        0.0290
      7 C          48.7011    8.7588  -29.8212 C.ar    1  UNL1        0.0477
      8 N          50.8873    9.9114  -26.9789 N.am    1  UNL1       -0.2803
      9 C          50.1225   10.9199  -26.2907 C.2     1  UNL1        0.2495
     10 O          48.9126   11.1080  -26.5947 O.2     1  UNL1       -0.2698
     11 H          51.8379    9.6622  -26.6282 H       1  UNL1        0.1552
     12 C          50.7278   11.7467  -25.2190 C.ar    1  UNL1        0.0537
     13 C          51.9110   11.3540  -24.5685 C.ar    1  UNL1        0.0042
     14 C          52.4638   12.1500  -23.5616 C.ar    1  UNL1       -0.0028
     15 C          51.8539   13.3587  -23.1898 C.ar    1  UNL1       -0.0061
     16 C          50.6499   13.7302  -23.8089 C.ar    1  UNL1       -0.0028
     17 C          50.0950   12.9345  -24.8145 C.ar    1  UNL1        0.0042
     18 C          52.4667   14.2232  -22.1050 C.3     1  UNL1        0.0992
     19 N          51.6534   14.3030  -20.8699 N.3     1  UNL1       -0.2665
     20 C          52.3567   13.8706  -19.6389 C.3     1  UNL1        0.0899
     21 C          51.7942   12.5512  -19.0933 C.3     1  UNL1        0.0897
     22 N          50.3557   12.6762  -18.7592 N.3     1  UNL1       -0.2691
     23 C          49.7268   11.3471  -18.7091 C.3     1  UNL1        0.0897
     24 C          49.6081   13.5952  -19.6554 C.3     1  UNL1        0.0897
     25 C          50.2872   13.7546  -21.0223 C.3     1  UNL1        0.0899
     26 N          47.4572    9.1211  -30.4485 N.pl3   1  UNL1       -0.2827
     27 H          46.9369    8.3948  -30.9901 H       1  UNL1        0.1551
     28 C          46.8508   10.4146  -30.3192 C.ar    1  UNL1        0.2207
     29 N          46.4640   11.1157  -31.4189 N.ar    1  UNL1       -0.2120
     30 C          45.9118   12.3494  -31.3031 C.ar    1  UNL1        0.1034
     31 C          45.7391   12.9212  -30.0437 C.ar    1  UNL1        0.0400
     32 C          46.1431   12.1953  -28.9115 C.ar    1  UNL1        0.0872
     33 N          46.6978   10.9635  -29.0849 N.ar    1  UNL1       -0.2135
     34 C          46.0019   12.7425  -27.5374 C.ar    1  UNL1        0.0370
     35 C          45.6828   11.8880  -26.4676 C.ar    1  UNL1        0.0046
     36 C          45.5432   12.3978  -25.1759 C.ar    1  UNL1        0.0207
     37 C          45.7146   13.7643  -24.9580 C.ar    1  UNL1        0.0989
     38 N          46.0089   14.5866  -25.9985 N.ar    1  UNL1       -0.2423
     39 C          46.1539   14.1161  -27.2662 C.ar    1  UNL1        0.1003
@<TRIPOS>BOND
     1     1     2    1
     2     2     3   ar
     3     3     4   ar
     4     4     5   ar
     5     5     8    1
     6     8     9   am
     7     9    10    2
     8     9    12    1
     9    12    13   ar
    10    13    14   ar
    11    14    15   ar
    12    15    18    1
    13    18    19    1
    14    19    20    1
    15    20    21    1
    16    21    22    1
    17    22    23    1
    18    22    24    1
    19    24    25    1
    20    15    16   ar
    21    16    17   ar
    22     5     6   ar
    23     6     7   ar
    24     7    26    1
    25    26    28    1
    26    28    29   ar
    27    29    30   ar
    28    30    31   ar
    29    31    32   ar
    30    32    34    1
    31    34    35   ar
    32    35    36   ar
    33    36    37   ar
    34    37    38   ar
    35    38    39   ar
    36    32    33   ar
    37     7     2   ar
    38    33    28   ar
    39    17    12   ar
    40    39    34   ar
    41    25    19    1
    42     8    11    1
    43    26    27    1
@<TRIPOS>MOLECULE
*****
 39 43 0 0 0
SMALL
GASTEIGER

@<TRIPOS>ATOM
      1 C          46.0394   12.3544  -31.8509 C.3     1  UNL1        0.0323
      2 C          46.2324   12.0793  -30.3844 C.ar    1  UNL1       -0.0083
      3 C          46.1556   13.1396  -29.4672 C.ar    1  UNL1       -0.0018
      4 C          46.3320   12.9111  -28.1017 C.ar    1  UNL1        0.0144
      5 C          46.5888   11.6207  -27.6249 C.ar    1  UNL1        0.0518
      6 C          46.6230   10.5497  -28.5323 C.ar    1  UNL1        0.0290
      7 C          46.4672   10.7680  -29.9127 C.ar    1  UNL1        0.0477
      8 N          46.7383   11.4080  -26.2109 N.am    1  UNL1       -0.2803
      9 C          47.8117   11.9659  -25.4284 C.2     1  UNL1        0.2495
     10 O          48.6204   12.7765  -25.9581 O.2     1  UNL1       -0.2698
     11 H          45.9923   10.8550  -25.7351 H       1  UNL1        0.1552
     12 C          47.9872   11.6107  -23.9995 C.ar    1  UNL1        0.0537
     13 C          49.0504   10.7966  -23.5706 C.ar    1  UNL1        0.0042
     14 C          49.1963   10.4756  -22.2182 C.ar    1  UNL1       -0.0028
     15 C          48.2911   10.9682  -21.2648 C.ar    1  UNL1       -0.0061
     16 C          47.2053   11.7458  -21.6976 C.ar    1  UNL1       -0.0028
     17 C          47.0571   12.0660  -23.0496 C.ar    1  UNL1        0.0042
     18 C          48.4634   10.6259  -19.7976 C.3     1  UNL1        0.0992
     19 N          48.6755   11.8049  -18.9268 N.3     1  UNL1       -0.2665
     20 C          49.9123   12.5696  -19.2139 C.3     1  UNL1        0.0899
     21 C          50.9476   12.4239  -18.0907 C.3     1  UNL1        0.0897
     22 N          50.4138   12.9167  -16.7989 N.3     1  UNL1       -0.2691
     23 C          51.1818   12.3484  -15.6800 C.3     1  UNL1        0.0897
     24 C          48.9560   12.6897  -16.6252 C.3     1  UNL1        0.0897
     25 C          48.4404   11.5325  -17.4912 C.3     1  UNL1        0.0899
     26 N          46.4865    9.6550  -30.8252 N.pl3   1  UNL1       -0.2827
     27 H          45.6696    9.5113  -31.4604 H       1  UNL1        0.1551
     28 C          47.5993    8.7600  -30.9613 C.ar    1  UNL1        0.2207
     29 N          47.4901    7.6191  -31.6940 N.ar    1  UNL1       -0.2120
     30 C          48.5321    6.7577  -31.8063 C.ar    1  UNL1        0.1034
     31 C          49.7363    7.0314  -31.1600 C.ar    1  UNL1        0.0400
     32 C          49.8434    8.2086  -30.4018 C.ar    1  UNL1        0.0872
     33 N          48.7644    9.0354  -30.3172 N.ar    1  UNL1       -0.2135
     34 C          51.0900    8.5630  -29.6753 C.ar    1  UNL1        0.0370
     35 C          52.3429    8.3194  -30.2645 C.ar    1  UNL1        0.0046
     36 C          53.5171    8.6449  -29.5840 C.ar    1  UNL1        0.0207
     37 C          53.4357    9.2062  -28.3102 C.ar    1  UNL1        0.0989
     38 N          52.2222    9.4260  -27.7407 N.ar    1  UNL1       -0.2423
     39 C          51.0626    9.1214  -28.3827 C.ar    1  UNL1        0.1003
@<TRIPOS>BOND
     1     1     2    1
     2     2     3   ar
     3     3     4   ar
     4     4     5   ar
     5     5     8    1
     6     8     9   am
     7     9    10    2
     8     9    12    1
     9    12    13   ar
    10    13    14   ar
    11    14    15   ar
    12    15    18    1
    13    18    19    1
    14    19    20    1
    15    20    21    1
    16    21    22    1
    17    22    23    1
    18    22    24    1
    19    24    25    1
    20    15    16   ar
    21    16    17   ar
    22     5     6   ar
    23     6     7   ar
    24     7    26    1
    25    26    28    1
    26    28    29   ar
    27    29    30   ar
    28    30    31   ar
    29    31    32   ar
    30    32    34    1
    31    34    35   ar
    32    35    36   ar
    33    36    37   ar
    34    37    38   ar
    35    38    39   ar
    36    32    33   ar
    37     7     2   ar
    38    33    28   ar
    39    17    12   ar
    40    39    34   ar
    41    25    19    1
    42     8    11    1
    43    26    27    1
@<TRIPOS>MOLECULE
*****
 39 43 0 0 0
SMALL
GASTEIGER

@<TRIPOS>ATOM
      1 C          46.0872   11.7163  -20.9014 C.3     1  UNL1        0.0323
      2 C          47.0978   11.3288  -21.9465 C.ar    1  UNL1       -0.0083
      3 C          48.0374   10.3258  -21.6598 C.ar    1  UNL1       -0.0018
      4 C          48.9860    9.9487  -22.6116 C.ar    1  UNL1        0.0144
      5 C          49.0158   10.5653  -23.8675 C.ar    1  UNL1        0.0518
      6 C          48.0511   11.5379  -24.1758 C.ar    1  UNL1        0.0290
      7 C          47.1023   11.9419  -23.2197 C.ar    1  UNL1        0.0477
      8 N          49.9849   10.1384  -24.8399 N.am    1  UNL1       -0.2803
      9 C          50.1087   10.7196  -26.1524 C.2     1  UNL1        0.2495
     10 O          49.4190   11.7302  -26.4602 O.2     1  UNL1       -0.2698
     11 H          50.6570    9.3975  -24.5431 H       1  UNL1        0.1552
     12 C          51.0407   10.1560  -27.1586 C.ar    1  UNL1        0.0537
     13 C          52.3125   10.7152  -27.3758 C.ar    1  UNL1        0.0042
     14 C          53.1745   10.1664  -28.3292 C.ar    1  UNL1       -0.0028
     15 C          52.7901    9.0427  -29.0780 C.ar    1  UNL1       -0.0061
     16 C          51.5046    8.5101  -28.8919 C.ar    1  UNL1       -0.0028
     17 C          50.6409    9.0588  -27.9404 C.ar    1  UNL1        0.0042
     18 C          53.7360    8.4453  -30.1017 C.3     1  UNL1        0.0992
     19 N          54.9997    7.9325  -29.5243 N.3     1  UNL1       -0.2665
     20 C          56.1194    8.9036  -29.5296 C.3     1  UNL1        0.0899
     21 C          57.2203    8.5005  -30.5199 C.3     1  UNL1        0.0897
     22 N          57.7882    7.1737  -30.1831 N.3     1  UNL1       -0.2691
     23 C          58.4590    6.5936  -31.3570 C.3     1  UNL1        0.0897
     24 C          56.8016    6.2277  -29.6011 C.3     1  UNL1        0.0897
     25 C          55.3598    6.5762  -29.9946 C.3     1  UNL1        0.0899
     26 N          46.1096   12.9268  -23.5610 N.pl3   1  UNL1       -0.2827
     27 H          45.4350   13.2365  -22.8258 H       1  UNL1        0.1551
     28 C          46.0313   13.5624  -24.8445 C.ar    1  UNL1        0.2207
     29 N          45.7790   14.8951  -24.9477 N.ar    1  UNL1       -0.2120
     30 C          45.6804   15.4965  -26.1597 C.ar    1  UNL1        0.1034
     31 C          45.8313   14.7466  -27.3249 C.ar    1  UNL1        0.0400
     32 C          46.0881   13.3704  -27.2138 C.ar    1  UNL1        0.0872
     33 N          46.1709   12.8163  -25.9724 N.ar    1  UNL1       -0.2135
     34 C          46.2495   12.5035  -28.4096 C.ar    1  UNL1        0.0370
     35 C          46.6630   11.1680  -28.2615 C.ar    1  UNL1        0.0046
     36 C          46.8218   10.3512  -29.3819 C.ar    1  UNL1        0.0207
     37 C          46.5749   10.8749  -30.6504 C.ar    1  UNL1        0.0989
     38 N          46.1893   12.1702  -30.7874 N.ar    1  UNL1       -0.2423
     39 C          46.0236   12.9871  -29.7129 C.ar    1  UNL1        0.1003
@<TRIPOS>BOND
     1     1     2    1
     2     2     3   ar
     3     3     4   ar
     4     4     5   ar
     5     5     8    1
     6     8     9   am
     7     9    10    2
     8     9    12    1
     9    12    13   ar
    10    13    14   ar
    11    14    15   ar
    12    15    18    1
    13    18    19    1
    14    19    20    1
    15    20    21    1
    16    21    22    1
    17    22    23    1
    18    22    24    1
    19    24    25    1
    20    15    16   ar
    21    16    17   ar
    22     5     6   ar
    23     6     7   ar
    24     7    26    1
    25    26    28    1
    26    28    29   ar
    27    29    30   ar
    28    30    31   ar
    29    31    32   ar
    30    32    34    1
    31    34    35   ar
    32    35    36   ar
    33    36    37   ar
    34    37    38   ar
    35    38    39   ar
    36    32    33   ar
    37     7     2   ar
    38    33    28   ar
    39    17    12   ar
    40    39    34   ar
    41    25    19    1
    42     8    11    1
    43    26    27    1
@<TRIPOS>MOLECULE
*****
 39 43 0 0 0
SMALL
GASTEIGER

@<TRIPOS>ATOM
      1 C          48.2530   10.3728  -20.9213 C.3     1  UNL1        0.0323
      2 C          48.9631   10.0439  -22.2064 C.ar    1  UNL1       -0.0083
      3 C          49.7715    8.8980  -22.2746 C.ar    1  UNL1       -0.0018
      4 C          50.4417    8.5714  -23.4545 C.ar    1  UNL1        0.0144
      5 C          50.3188    9.3817  -24.5888 C.ar    1  UNL1        0.0518
      6 C          49.4771   10.5046  -24.5400 C.ar    1  UNL1        0.0290
      7 C          48.8118   10.8569  -23.3523 C.ar    1  UNL1        0.0477
      8 N          50.9969    9.0074  -25.7999 N.am    1  UNL1       -0.2803
      9 C          50.5733    9.4214  -27.1132 C.2     1  UNL1        0.2495
     10 O          49.6250   10.2442  -27.2376 O.2     1  UNL1       -0.2698
     11 H          51.8687    8.4431  -25.6979 H       1  UNL1        0.1552
     12 C          51.2353    8.9026  -28.3343 C.ar    1  UNL1        0.0537
     13 C          52.4386    9.4548  -28.8080 C.ar    1  UNL1        0.0042
     14 C          53.0449    8.9487  -29.9611 C.ar    1  UNL1       -0.0028
     15 C          52.4694    7.8753  -30.6593 C.ar    1  UNL1       -0.0061
     16 C          51.2463    7.3516  -30.2113 C.ar    1  UNL1       -0.0028
     17 C          50.6379    7.8577  -29.0597 C.ar    1  UNL1        0.0042
     18 C          53.1399    7.3236  -31.9025 C.3     1  UNL1        0.0992
     19 N          54.4424    6.6685  -31.6417 N.3     1  UNL1       -0.2665
     20 C          54.6156    6.1693  -30.2569 C.3     1  UNL1        0.0899
     21 C          55.6587    6.9855  -29.4818 C.3     1  UNL1        0.0897
     22 N          56.9850    6.9289  -30.1408 N.3     1  UNL1       -0.2691
     23 C          57.8219    8.0555  -29.6993 C.3     1  UNL1        0.0897
     24 C          56.9171    6.8535  -31.6229 C.3     1  UNL1        0.0897
     25 C          55.6015    7.4191  -32.1742 C.3     1  UNL1        0.0899
     26 N          47.9383   12.0008  -23.3275 N.pl3   1  UNL1       -0.2827
     27 H          48.1564   12.7859  -22.6737 H       1  UNL1        0.1551
     28 C          46.8118   12.1576  -24.2016 C.ar    1  UNL1        0.2207
     29 N          45.5811   12.4566  -23.7051 N.ar    1  UNL1       -0.2120
     30 C          44.5078   12.5825  -24.5251 C.ar    1  UNL1        0.1034
     31 C          44.6541   12.3984  -25.8990 C.ar    1  UNL1        0.0400
     32 C          45.9257   12.0863  -26.4068 C.ar    1  UNL1        0.0872
     33 N          46.9679   11.9653  -25.5383 N.ar    1  UNL1       -0.2135
     34 C          46.1582   11.8644  -27.8574 C.ar    1  UNL1        0.0370
     35 C          46.5254   10.5908  -28.3258 C.ar    1  UNL1        0.0046
     36 C          46.7508   10.3783  -29.6867 C.ar    1  UNL1        0.0207
     37 C          46.6167   11.4436  -30.5763 C.ar    1  UNL1        0.0989
     38 N          46.2754   12.6750  -30.1153 N.ar    1  UNL1       -0.2423
     39 C          46.0468   12.9091  -28.7953 C.ar    1  UNL1        0.1003
@<TRIPOS>BOND
     1     1     2    1
     2     2     3   ar
     3     3     4   ar
     4     4     5   ar
     5     5     8    1
     6     8     9   am
     7     9    10    2
     8     9    12    1
     9    12    13   ar
    10    13    14   ar
    11    14    15   ar
    12    15    18    1
    13    18    19    1
    14    19    20    1
    15    20    21    1
    16    21    22    1
    17    22    23    1
    18    22    24    1
    19    24    25    1
    20    15    16   ar
    21    16    17   ar
    22     5     6   ar
    23     6     7   ar
    24     7    26    1
    25    26    28    1
    26    28    29   ar
    27    29    30   ar
    28    30    31   ar
    29    31    32   ar
    30    32    34    1
    31    34    35   ar
    32    35    36   ar
    33    36    37   ar
    34    37    38   ar
    35    38    39   ar
    36    32    33   ar
    37     7     2   ar
    38    33    28   ar
    39    17    12   ar
    40    39    34   ar
    41    25    19    1
    42     8    11    1
    43    26    27    1
@<TRIPOS>MOLECULE
*****
 39 43 0 0 0
SMALL
GASTEIGER

@<TRIPOS>ATOM
      1 C          45.8512   13.1044  -29.6261 C.3     1  UNL1        0.0323
      2 C          46.3649   13.0337  -28.2137 C.ar    1  UNL1       -0.0083
      3 C          46.3259   14.1818  -27.4066 C.ar    1  UNL1       -0.0018
      4 C          46.7974   14.1428  -26.0935 C.ar    1  UNL1        0.0144
      5 C          47.3172   12.9579  -25.5604 C.ar    1  UNL1        0.0518
      6 C          47.3183   11.7954  -26.3481 C.ar    1  UNL1        0.0290
      7 C          46.8653   11.8250  -27.6791 C.ar    1  UNL1        0.0477
      8 N          47.7698   12.9373  -24.1961 N.am    1  UNL1       -0.2803
      9 C          49.1530   13.0588  -23.8115 C.2     1  UNL1        0.2495
     10 O          50.0290   13.3058  -24.6852 O.2     1  UNL1       -0.2698
     11 H          47.0366   12.8771  -23.4561 H       1  UNL1        0.1552
     12 C          49.5751   12.9044  -22.3985 C.ar    1  UNL1        0.0537
     13 C          49.5432   11.6545  -21.7551 C.ar    1  UNL1        0.0042
     14 C          49.9467   11.5329  -20.4226 C.ar    1  UNL1       -0.0028
     15 C          50.3999   12.6530  -19.7077 C.ar    1  UNL1       -0.0061
     16 C          50.3918   13.9083  -20.3361 C.ar    1  UNL1       -0.0028
     17 C          49.9868   14.0319  -21.6677 C.ar    1  UNL1        0.0042
     18 C          50.8480   12.5106  -18.2660 C.3     1  UNL1        0.0992
     19 N          49.7611   12.1316  -17.3341 N.3     1  UNL1       -0.2665
     20 C          48.5220   12.9330  -17.4725 C.3     1  UNL1        0.0899
     21 C          48.2962   13.8491  -16.2622 C.3     1  UNL1        0.0897
     22 N          48.1783   13.0667  -15.0090 N.3     1  UNL1       -0.2691
     23 C          48.4471   13.9253  -13.8450 C.3     1  UNL1        0.0897
     24 C          49.0187   11.8420  -14.9838 C.3     1  UNL1        0.0897
     25 C          50.2159   11.9384  -15.9390 C.3     1  UNL1        0.0899
     26 N          46.8566   10.6187  -28.4644 N.pl3   1  UNL1       -0.2827
     27 H          45.9765   10.3454  -28.9565 H       1  UNL1        0.1551
     28 C          48.0138    9.7955  -28.6665 C.ar    1  UNL1        0.2207
     29 N          49.0598    9.8386  -27.7979 N.ar    1  UNL1       -0.2120
     30 C          50.1663    9.0797  -27.9976 C.ar    1  UNL1        0.1034
     31 C          50.2477    8.2438  -29.1100 C.ar    1  UNL1        0.0400
     32 C          49.1671    8.2052  -30.0060 C.ar    1  UNL1        0.0872
     33 N          48.0829    8.9925  -29.7613 N.ar    1  UNL1       -0.2135
     34 C          49.1846    7.3482  -31.2196 C.ar    1  UNL1        0.0370
     35 C          47.9768    6.9238  -31.8005 C.ar    1  UNL1        0.0046
     36 C          47.9877    6.1138  -32.9370 C.ar    1  UNL1        0.0207
     37 C          49.2083    5.7224  -33.4859 C.ar    1  UNL1        0.0989
     38 N          50.3718    6.1245  -32.9114 N.ar    1  UNL1       -0.2423
     39 C          50.3901    6.9163  -31.8059 C.ar    1  UNL1        0.1003
@<TRIPOS>BOND
     1     1     2    1
     2     2     3   ar
     3     3     4   ar
     4     4     5   ar
     5     5     8    1
     6     8     9   am
     7     9    10    2
     8     9    12    1
     9    12    13   ar
    10    13    14   ar
    11    14    15   ar
    12    15    18    1
    13    18    19    1
    14    19    20    1
    15    20    21    1
    16    21    22    1
    17    22    23    1
    18    22    24    1
    19    24    25    1
    20    15    16   ar
    21    16    17   ar
    22     5     6   ar
    23     6     7   ar
    24     7    26    1
    25    26    28    1
    26    28    29   ar
    27    29    30   ar
    28    30    31   ar
    29    31    32   ar
    30    32    34    1
    31    34    35   ar
    32    35    36   ar
    33    36    37   ar
    34    37    38   ar
    35    38    39   ar
    36    32    33   ar
    37     7     2   ar
    38    33    28   ar
    39    17    12   ar
    40    39    34   ar
    41    25    19    1
    42     8    11    1
    43    26    27    1
@<TRIPOS>MOLECULE
*****
 39 43 0 0 0
SMALL
GASTEIGER

@<TRIPOS>ATOM
      1 C          52.4113    9.4285  -29.1109 C.3     1  UNL1        0.0323
      2 C          51.8867    9.5496  -27.7059 C.ar    1  UNL1       -0.0083
      3 C          52.7184   10.0683  -26.7008 C.ar    1  UNL1       -0.0018
      4 C          52.2561   10.1899  -25.3895 C.ar    1  UNL1        0.0144
      5 C          50.9555    9.7960  -25.0556 C.ar    1  UNL1        0.0518
      6 C          50.1045    9.3177  -26.0650 C.ar    1  UNL1        0.0290
      7 C          50.5633    9.1709  -27.3862 C.ar    1  UNL1        0.0477
      8 N          50.4946    9.9583  -23.7035 N.am    1  UNL1       -0.2803
      9 C          49.5273   10.9480  -23.3028 C.2     1  UNL1        0.2495
     10 O          48.9529   11.6552  -24.1755 O.2     1  UNL1       -0.2698
     11 H          50.8574    9.2821  -22.9965 H       1  UNL1        0.1552
     12 C          49.1831   11.1536  -21.8752 C.ar    1  UNL1        0.0537
     13 C          48.7870   12.4123  -21.3894 C.ar    1  UNL1        0.0042
     14 C          48.4666   12.5821  -20.0397 C.ar    1  UNL1       -0.0028
     15 C          48.5246   11.4983  -19.1492 C.ar    1  UNL1       -0.0061
     16 C          48.9609   10.2515  -19.6246 C.ar    1  UNL1       -0.0028
     17 C          49.2835   10.0806  -20.9733 C.ar    1  UNL1        0.0042
     18 C          48.1632   11.6878  -17.6887 C.3     1  UNL1        0.0992
     19 N          49.2878   11.4465  -16.7557 N.3     1  UNL1       -0.2665
     20 C          48.8806   11.1545  -15.3608 C.3     1  UNL1        0.0899
     21 C          49.2475   12.2994  -14.4071 C.3     1  UNL1        0.0897
     22 N          50.7090   12.5454  -14.3981 N.3     1  UNL1       -0.2691
     23 C          50.9951   13.8971  -13.8926 C.3     1  UNL1        0.0897
     24 C          51.3667   12.3073  -15.7087 C.3     1  UNL1        0.0897
     25 C          50.3859   12.4307  -16.8824 C.3     1  UNL1        0.0899
     26 N          49.6702    8.6968  -28.4107 N.pl3   1  UNL1       -0.2827
     27 H          49.8437    7.7574  -28.8337 H       1  UNL1        0.1551
     28 C          48.5072    9.4160  -28.8441 C.ar    1  UNL1        0.2207
     29 N          47.9590    9.1820  -30.0669 N.ar    1  UNL1       -0.2120
     30 C          46.8734    9.8763  -30.4910 C.ar    1  UNL1        0.1034
     31 C          46.3059   10.8519  -29.6732 C.ar    1  UNL1        0.0400
     32 C          46.8773   11.0927  -28.4131 C.ar    1  UNL1        0.0872
     33 N          47.9707   10.3715  -28.0395 N.ar    1  UNL1       -0.2135
     34 C          46.3360   12.1237  -27.4904 C.ar    1  UNL1        0.0370
     35 C          45.7190   11.7389  -26.2872 C.ar    1  UNL1        0.0046
     36 C          45.2036   12.7031  -25.4197 C.ar    1  UNL1        0.0207
     37 C          45.2986   14.0514  -25.7620 C.ar    1  UNL1        0.0989
     38 N          45.8834   14.4157  -26.9327 N.ar    1  UNL1       -0.2423
     39 C          46.3968   13.4975  -27.7946 C.ar    1  UNL1        0.1003
@<TRIPOS>BOND
     1     1     2    1
     2     2     3   ar
     3     3     4   ar
     4     4     5   ar
     5     5     8    1
     6     8     9   am
     7     9    10    2
     8     9    12    1
     9    12    13   ar
    10    13    14   ar
    11    14    15   ar
    12    15    18    1
    13    18    19    1
    14    19    20    1
    15    20    21    1
    16    21    22    1
    17    22    23    1
    18    22    24    1
    19    24    25    1
    20    15    16   ar
    21    16    17   ar
    22     5     6   ar
    23     6     7   ar
    24     7    26    1
    25    26    28    1
    26    28    29   ar
    27    29    30   ar
    28    30    31   ar
    29    31    32   ar
    30    32    34    1
    31    34    35   ar
    32    35    36   ar
    33    36    37   ar
    34    37    38   ar
    35    38    39   ar
    36    32    33   ar
    37     7     2   ar
    38    33    28   ar
    39    17    12   ar
    40    39    34   ar
    41    25    19    1
    42     8    11    1
    43    26    27    1
