@<TRIPOS>MOLECULE
*****
 47 52 0 0 0
SMALL
GASTEIGER

@<TRIPOS>ATOM
      1 O         -23.9162   50.9885  -11.4677 O.2     1  UNL1       -0.2701
      2 C         -24.0411   51.5600  -10.3506 C.2     1  UNL1        0.2483
      3 N         -23.0432   52.4959   -9.9004 N.am    1  UNL1       -0.2945
      4 H         -23.0453   52.7736   -8.8930 H       1  UNL1        0.1501
      5 C         -25.2032   51.2250   -9.4974 C.ar    1  UNL1        0.0808
      6 C         -26.5043   51.4395   -9.9820 C.ar    1  UNL1        0.0080
      7 C         -27.6163   51.1275   -9.1958 C.ar    1  UNL1        0.0148
      8 C         -27.4494   50.6105   -7.9025 C.ar    1  UNL1        0.0502
      9 C         -26.1505   50.4058   -7.4108 C.ar    1  UNL1        0.0443
     10 C         -25.0350   50.7144   -8.1956 C.ar    1  UNL1        0.1457
     11 F         -23.7977   50.5537   -7.6615 F       1  UNL1       -0.2040
     12 N         -28.5955   50.2768   -7.0970 N.pl3   1  UNL1       -0.3040
     13 C         -29.3905   51.3306   -6.4528 C.3     1  UNL1        0.1122
     14 C         -29.4755   51.0622   -4.9484 C.3     1  UNL1        0.1123
     15 N         -29.7727   49.6487   -4.6791 N.pl3   1  UNL1       -0.3034
     16 C         -30.0086   48.7078   -5.7794 C.3     1  UNL1        0.1123
     17 C         -28.9170   48.8623   -6.8468 C.3     1  UNL1        0.1122
     18 C         -30.0185   49.2346   -3.3297 C.ar    1  UNL1        0.0587
     19 C         -31.2440   49.5417   -2.7220 C.ar    1  UNL1        0.0162
     20 C         -31.4956   49.1462   -1.4054 C.ar    1  UNL1        0.0127
     21 C         -30.5259   48.4372   -0.6895 C.ar    1  UNL1        0.0586
     22 CL        -30.8436   47.9400    0.9624 Cl      1  UNL1       -0.0822
     23 C         -29.3043   48.1201   -1.2933 C.ar    1  UNL1        0.0240
     24 C         -29.0466   48.5142   -2.6118 C.ar    1  UNL1        0.0718
     25 CL        -27.5176   48.0662   -3.3558 Cl      1  UNL1       -0.0809
     26 C         -21.9961   53.0814  -10.7505 C.3     1  UNL1        0.1535
     27 C         -21.6034   54.4637  -10.2768 C.2     1  UNL1        0.2443
     28 O         -22.4594   55.3880  -10.2314 O.2     1  UNL1       -0.2730
     29 N         -20.2398   54.7227   -9.9030 N.am    1  UNL1       -0.2825
     30 H         -19.5086   54.0666  -10.2603 H       1  UNL1        0.1549
     31 C         -19.8056   55.8251   -9.0856 C.ar    1  UNL1        0.0535
     32 C         -20.0174   57.1627   -9.4658 C.ar    1  UNL1        0.0353
     33 C         -19.6202   58.1940   -8.6113 C.ar    1  UNL1        0.1002
     34 N         -19.0417   57.9063   -7.4160 N.ar    1  UNL1       -0.2422
     35 C         -18.8371   56.6240   -7.0154 C.ar    1  UNL1        0.1002
     36 C         -19.2222   55.5630   -7.8380 C.ar    1  UNL1        0.0353
     37 C         -20.7827   52.1357  -10.8743 C.3     1  UNL1        0.0569
     38 C         -19.9393   52.1464   -9.6302 C.ar    1  UNL1       -0.0017
     39 C         -20.4052   52.1556   -8.3187 C.ar    1  UNL1        0.0681
     40 N         -19.3757   52.0307   -7.4505 N.ar    1  UNL1       -0.3523
     41 C         -18.2654   51.9321   -8.2018 C.ar    1  UNL1        0.0563
     42 C         -16.9584   51.7419   -7.7555 C.ar    1  UNL1        0.0170
     43 C         -15.9438   51.6225   -8.7226 C.ar    1  UNL1        0.0015
     44 C         -16.2546   51.6949  -10.0983 C.ar    1  UNL1        0.0001
     45 C         -17.5827   51.8868  -10.5196 C.ar    1  UNL1        0.0012
     46 C         -18.5679   52.0005   -9.5379 C.ar    1  UNL1        0.0131
     47 H         -19.4383   51.9904   -6.4089 H       1  UNL1        0.1660
@<TRIPOS>BOND
     1     1     2    2
     2     2     3   am
     3     3    26    1
     4    26    37    1
     5    37    38    1
     6    38    39   ar
     7    39    40   ar
     8    40    41   ar
     9    41    42   ar
    10    42    43   ar
    11    43    44   ar
    12    44    45   ar
    13    45    46   ar
    14    26    27    1
    15    27    28    2
    16    27    29   am
    17    29    31    1
    18    31    32   ar
    19    32    33   ar
    20    33    34   ar
    21    34    35   ar
    22    35    36   ar
    23     2     5    1
    24     5     6   ar
    25     6     7   ar
    26     7     8   ar
    27     8    12    1
    28    12    13    1
    29    13    14    1
    30    14    15    1
    31    15    18    1
    32    18    19   ar
    33    19    20   ar
    34    20    21   ar
    35    21    22    1
    36    21    23   ar
    37    23    24   ar
    38    24    25    1
    39    15    16    1
    40    16    17    1
    41     8     9   ar
    42     9    10   ar
    43    10    11    1
    44    46    38   ar
    45    36    31   ar
    46    10     5   ar
    47    46    41   ar
    48    17    12    1
    49    24    18   ar
    50     3     4    1
    51    40    47    1
    52    29    30    1
@<TRIPOS>MOLECULE
*****
 47 52 0 0 0
SMALL
GASTEIGER

@<TRIPOS>ATOM
      1 O         -29.3015   50.7739  -10.7488 O.2     1  UNL1       -0.2701
      2 C         -28.5755   51.0397   -9.7526 C.2     1  UNL1        0.2483
      3 N         -29.1352   51.0309   -8.4255 N.am    1  UNL1       -0.2945
      4 H         -28.5860   51.4739   -7.6548 H       1  UNL1        0.1501
      5 C         -27.1562   51.3978   -9.9722 C.ar    1  UNL1        0.0808
      6 C         -26.4764   50.8853  -11.0897 C.ar    1  UNL1        0.0080
      7 C         -25.1376   51.2124  -11.3191 C.ar    1  UNL1        0.0148
      8 C         -24.4467   52.0452  -10.4264 C.ar    1  UNL1        0.0502
      9 C         -25.1198   52.5498   -9.3026 C.ar    1  UNL1        0.0443
     10 C         -26.4605   52.2267   -9.0707 C.ar    1  UNL1        0.1457
     11 F         -27.0571   52.6903   -7.9433 F       1  UNL1       -0.2040
     12 N         -23.0706   52.3929  -10.6698 N.pl3   1  UNL1       -0.3040
     13 C         -22.2169   51.5337  -11.5008 C.3     1  UNL1        0.1122
     14 C         -20.9628   51.1429  -10.7153 C.3     1  UNL1        0.1123
     15 N         -20.3867   52.3055  -10.0258 N.pl3   1  UNL1       -0.3034
     16 C         -20.9719   53.6407  -10.1872 C.3     1  UNL1        0.1123
     17 C         -22.4941   53.5733  -10.0056 C.3     1  UNL1        0.1122
     18 C         -19.1344   52.1598   -9.3449 C.ar    1  UNL1        0.0587
     19 C         -19.1044   52.1442   -7.9433 C.ar    1  UNL1        0.0162
     20 C         -17.8895   52.0055   -7.2667 C.ar    1  UNL1        0.0127
     21 C         -16.6975   51.8769   -7.9865 C.ar    1  UNL1        0.0586
     22 CL        -15.1735   51.7013   -7.1360 Cl      1  UNL1       -0.0822
     23 C         -16.7218   51.8830   -9.3853 C.ar    1  UNL1        0.0240
     24 C         -17.9360   52.0222  -10.0685 C.ar    1  UNL1        0.0718
     25 CL        -17.9380   51.9863  -11.8266 Cl      1  UNL1       -0.0809
     26 C         -30.4429   50.4611   -8.0691 C.3     1  UNL1        0.1535
     27 C         -30.5078   48.9813   -8.3780 C.2     1  UNL1        0.2443
     28 O         -31.5812   48.4633   -8.7887 O.2     1  UNL1       -0.2730
     29 N         -29.3426   48.1644   -8.1751 N.am    1  UNL1       -0.2825
     30 H         -28.6011   48.5317   -7.5364 H       1  UNL1        0.1549
     31 C         -29.1280   46.8734   -8.7745 C.ar    1  UNL1        0.0535
     32 C         -29.7136   45.7047   -8.2554 C.ar    1  UNL1        0.0353
     33 C         -29.5125   44.4848   -8.9056 C.ar    1  UNL1        0.1002
     34 N         -28.7637   44.4294  -10.0381 N.ar    1  UNL1       -0.2422
     35 C         -28.1972   45.5437  -10.5710 C.ar    1  UNL1        0.1002
     36 C         -28.3758   46.7840   -9.9544 C.ar    1  UNL1        0.0353
     37 C         -30.8070   50.7717   -6.6017 C.3     1  UNL1        0.0569
     38 C         -29.9018   50.0543   -5.6398 C.ar    1  UNL1       -0.0017
     39 C         -30.0936   48.7754   -5.1253 C.ar    1  UNL1        0.0681
     40 N         -29.0214   48.3943   -4.3943 N.ar    1  UNL1       -0.3523
     41 C         -28.1502   49.4164   -4.4511 C.ar    1  UNL1        0.0563
     42 C         -26.8766   49.4723   -3.8868 C.ar    1  UNL1        0.0170
     43 C         -26.1099   50.6311   -4.1065 C.ar    1  UNL1        0.0015
     44 C         -26.6273   51.6959   -4.8766 C.ar    1  UNL1        0.0001
     45 C         -27.9156   51.6115   -5.4345 C.ar    1  UNL1        0.0012
     46 C         -28.6522   50.4495   -5.2007 C.ar    1  UNL1        0.0131
     47 H         -28.8893   47.4789   -3.9095 H       1  UNL1        0.1660
@<TRIPOS>BOND
     1     1     2    2
     2     2     3   am
     3     3    26    1
     4    26    37    1
     5    37    38    1
     6    38    39   ar
     7    39    40   ar
     8    40    41   ar
     9    41    42   ar
    10    42    43   ar
    11    43    44   ar
    12    44    45   ar
    13    45    46   ar
    14    26    27    1
    15    27    28    2
    16    27    29   am
    17    29    31    1
    18    31    32   ar
    19    32    33   ar
    20    33    34   ar
    21    34    35   ar
    22    35    36   ar
    23     2     5    1
    24     5     6   ar
    25     6     7   ar
    26     7     8   ar
    27     8    12    1
    28    12    13    1
    29    13    14    1
    30    14    15    1
    31    15    18    1
    32    18    19   ar
    33    19    20   ar
    34    20    21   ar
    35    21    22    1
    36    21    23   ar
    37    23    24   ar
    38    24    25    1
    39    15    16    1
    40    16    17    1
    41     8     9   ar
    42     9    10   ar
    43    10    11    1
    44    46    38   ar
    45    36    31   ar
    46    10     5   ar
    47    46    41   ar
    48    17    12    1
    49    24    18   ar
    50     3     4    1
    51    40    47    1
    52    29    30    1
@<TRIPOS>MOLECULE
*****
 47 52 0 0 0
SMALL
GASTEIGER

@<TRIPOS>ATOM
      1 O         -29.1405   51.6813  -10.0208 O.2     1  UNL1       -0.2701
      2 C         -28.2620   50.8393  -10.3513 C.2     1  UNL1        0.2483
      3 N         -28.6294   49.4691  -10.6004 N.am    1  UNL1       -0.2945
      4 H         -27.8690   48.7535  -10.6420 H       1  UNL1        0.1501
      5 C         -26.8491   51.2714  -10.4399 C.ar    1  UNL1        0.0808
      6 C         -26.0815   50.9080  -11.5591 C.ar    1  UNL1        0.0080
      7 C         -24.7470   51.3075  -11.6659 C.ar    1  UNL1        0.0148
      8 C         -24.1481   52.0640  -10.6477 C.ar    1  UNL1        0.0502
      9 C         -24.9090   52.4189   -9.5226 C.ar    1  UNL1        0.0443
     10 C         -26.2458   52.0233   -9.4131 C.ar    1  UNL1        0.1457
     11 F         -26.9289   52.3400   -8.2839 F       1  UNL1       -0.2040
     12 N         -22.7764   52.4867  -10.7637 N.pl3   1  UNL1       -0.3040
     13 C         -21.8493   51.7834  -11.6602 C.3     1  UNL1        0.1122
     14 C         -20.6214   51.3240  -10.8707 C.3     1  UNL1        0.1123
     15 N         -20.1262   52.3932   -9.9930 N.pl3   1  UNL1       -0.3034
     16 C         -20.7549   53.7184   -9.9952 C.3     1  UNL1        0.1123
     17 C         -22.2804   53.5772   -9.9084 C.3     1  UNL1        0.1122
     18 C         -18.9045   52.1913   -9.2722 C.ar    1  UNL1        0.0587
     19 C         -18.9267   52.1331   -7.8716 C.ar    1  UNL1        0.0162
     20 C         -17.7419   51.9394   -7.1562 C.ar    1  UNL1        0.0127
     21 C         -16.5281   51.7978   -7.8362 C.ar    1  UNL1        0.0586
     22 CL        -15.0420   51.5531   -6.9371 Cl      1  UNL1       -0.0822
     23 C         -16.5007   51.8462   -9.2341 C.ar    1  UNL1        0.0240
     24 C         -17.6844   52.0406   -9.9560 C.ar    1  UNL1        0.0718
     25 CL        -17.6226   52.0572  -11.7133 Cl      1  UNL1       -0.0809
     26 C         -30.0070   48.9881  -10.7808 C.3     1  UNL1        0.1535
     27 C         -30.3468   48.8098  -12.2444 C.2     1  UNL1        0.2443
     28 O         -30.6654   49.8050  -12.9497 O.2     1  UNL1       -0.2730
     29 N         -30.3288   47.4927  -12.8196 N.am    1  UNL1       -0.2825
     30 H         -30.3962   46.6797  -12.1658 H       1  UNL1        0.1549
     31 C         -30.2391   47.2109  -14.2283 C.ar    1  UNL1        0.0535
     32 C         -30.5301   45.9388  -14.7533 C.ar    1  UNL1        0.0353
     33 C         -30.4754   45.7331  -16.1339 C.ar    1  UNL1        0.1002
     34 N         -30.1525   46.7583  -16.9651 N.ar    1  UNL1       -0.2422
     35 C         -29.8802   48.0014  -16.4885 C.ar    1  UNL1        0.1002
     36 C         -29.9267   48.2510  -15.1150 C.ar    1  UNL1        0.0353
     37 C         -30.2648   47.7084   -9.9574 C.3     1  UNL1        0.0569
     38 C         -28.9818   47.0287   -9.5685 C.ar    1  UNL1       -0.0017
     39 C         -28.3947   45.9449  -10.2148 C.ar    1  UNL1        0.0681
     40 N         -27.1831   45.6742   -9.6780 N.ar    1  UNL1       -0.3523
     41 C         -26.9954   46.5836   -8.7060 C.ar    1  UNL1        0.0563
     42 C         -25.8691   46.7358   -7.8986 C.ar    1  UNL1        0.0170
     43 C         -25.8657   47.7888   -6.9657 C.ar    1  UNL1        0.0015
     44 C         -26.9753   48.6562   -6.8621 C.ar    1  UNL1        0.0001
     45 C         -28.0981   48.4792   -7.6905 C.ar    1  UNL1        0.0012
     46 C         -28.0724   47.4272   -8.6070 C.ar    1  UNL1        0.0131
     47 H         -26.5189   44.9272   -9.9798 H       1  UNL1        0.1660
@<TRIPOS>BOND
     1     1     2    2
     2     2     3   am
     3     3    26    1
     4    26    37    1
     5    37    38    1
     6    38    39   ar
     7    39    40   ar
     8    40    41   ar
     9    41    42   ar
    10    42    43   ar
    11    43    44   ar
    12    44    45   ar
    13    45    46   ar
    14    26    27    1
    15    27    28    2
    16    27    29   am
    17    29    31    1
    18    31    32   ar
    19    32    33   ar
    20    33    34   ar
    21    34    35   ar
    22    35    36   ar
    23     2     5    1
    24     5     6   ar
    25     6     7   ar
    26     7     8   ar
    27     8    12    1
    28    12    13    1
    29    13    14    1
    30    14    15    1
    31    15    18    1
    32    18    19   ar
    33    19    20   ar
    34    20    21   ar
    35    21    22    1
    36    21    23   ar
    37    23    24   ar
    38    24    25    1
    39    15    16    1
    40    16    17    1
    41     8     9   ar
    42     9    10   ar
    43    10    11    1
    44    46    38   ar
    45    36    31   ar
    46    10     5   ar
    47    46    41   ar
    48    17    12    1
    49    24    18   ar
    50     3     4    1
    51    40    47    1
    52    29    30    1
@<TRIPOS>MOLECULE
*****
 47 52 0 0 0
SMALL
GASTEIGER

@<TRIPOS>ATOM
      1 O         -27.4835   48.6424   -9.9684 O.2     1  UNL1       -0.2701
      2 C         -27.3779   49.8934   -9.8501 C.2     1  UNL1        0.2483
      3 N         -28.5577   50.7174   -9.7909 N.am    1  UNL1       -0.2945
      4 H         -28.4479   51.7477   -9.9270 H       1  UNL1        0.1501
      5 C         -26.0287   50.5008   -9.8132 C.ar    1  UNL1        0.0808
      6 C         -25.4236   50.9197  -11.0100 C.ar    1  UNL1        0.0080
      7 C         -24.1523   51.4989  -10.9991 C.ar    1  UNL1        0.0148
      8 C         -23.4532   51.6555   -9.7930 C.ar    1  UNL1        0.0502
      9 C         -24.0501   51.2274   -8.5967 C.ar    1  UNL1        0.0443
     10 C         -25.3235   50.6495   -8.6031 C.ar    1  UNL1        0.1457
     11 F         -25.8407   50.1988   -7.4321 F       1  UNL1       -0.2040
     12 N         -22.1482   52.2642   -9.7802 N.pl3   1  UNL1       -0.3040
     13 C         -21.1191   51.8098   -8.8358 C.3     1  UNL1        0.1122
     14 C         -20.6106   53.0001   -8.0191 C.3     1  UNL1        0.1123
     15 N         -20.3557   54.1627   -8.8807 N.pl3   1  UNL1       -0.3034
     16 C         -20.5312   54.0733  -10.3342 C.3     1  UNL1        0.1123
     17 C         -21.8760   53.4111  -10.6620 C.3     1  UNL1        0.1122
     18 C         -19.7514   55.3306   -8.3118 C.ar    1  UNL1        0.0587
     19 C         -18.7055   55.1910   -7.3887 C.ar    1  UNL1        0.0162
     20 C         -18.1092   56.3219   -6.8242 C.ar    1  UNL1        0.0127
     21 C         -18.5511   57.5994   -7.1823 C.ar    1  UNL1        0.0586
     22 CL        -17.8007   59.0180   -6.4742 Cl      1  UNL1       -0.0822
     23 C         -19.5886   57.7454   -8.1095 C.ar    1  UNL1        0.0240
     24 C         -20.1901   56.6161   -8.6778 C.ar    1  UNL1        0.0718
     25 CL        -21.4646   56.8334   -9.8697 Cl      1  UNL1       -0.0809
     26 C         -29.9227   50.2160   -9.5738 C.3     1  UNL1        0.1535
     27 C         -30.4889   49.5839  -10.8265 C.2     1  UNL1        0.2443
     28 O         -31.3959   50.1671  -11.4796 O.2     1  UNL1       -0.2730
     29 N         -30.0031   48.3001  -11.2529 N.am    1  UNL1       -0.2825
     30 H         -29.5218   47.7054  -10.5405 H       1  UNL1        0.1549
     31 C         -30.1424   47.7676  -12.5830 C.ar    1  UNL1        0.0535
     32 C         -30.2793   48.6006  -13.7080 C.ar    1  UNL1        0.0353
     33 C         -30.3611   48.0323  -14.9815 C.ar    1  UNL1        0.1002
     34 N         -30.2988   46.6834  -15.1329 N.ar    1  UNL1       -0.2422
     35 C         -30.1526   45.8541  -14.0664 C.ar    1  UNL1        0.1002
     36 C         -30.0638   46.3812  -12.7760 C.ar    1  UNL1        0.0353
     37 C         -29.9830   49.2673   -8.3579 C.3     1  UNL1        0.0569
     38 C         -29.3192   49.8673   -7.1502 C.ar    1  UNL1       -0.0017
     39 C         -29.5828   51.1190   -6.6014 C.ar    1  UNL1        0.0681
     40 N         -28.8997   51.2816   -5.4455 N.ar    1  UNL1       -0.3523
     41 C         -28.2156   50.1405   -5.2540 C.ar    1  UNL1        0.0563
     42 C         -27.4009   49.8166   -4.1700 C.ar    1  UNL1        0.0170
     43 C         -26.8093   48.5404   -4.1498 C.ar    1  UNL1        0.0015
     44 C         -27.0426   47.6270   -5.2014 C.ar    1  UNL1        0.0001
     45 C         -27.8701   47.9809   -6.2823 C.ar    1  UNL1        0.0012
     46 C         -28.4440   49.2528   -6.2744 C.ar    1  UNL1        0.0131
     47 H         -28.9243   52.1155   -4.8174 H       1  UNL1        0.1660
@<TRIPOS>BOND
     1     1     2    2
     2     2     3   am
     3     3    26    1
     4    26    37    1
     5    37    38    1
     6    38    39   ar
     7    39    40   ar
     8    40    41   ar
     9    41    42   ar
    10    42    43   ar
    11    43    44   ar
    12    44    45   ar
    13    45    46   ar
    14    26    27    1
    15    27    28    2
    16    27    29   am
    17    29    31    1
    18    31    32   ar
    19    32    33   ar
    20    33    34   ar
    21    34    35   ar
    22    35    36   ar
    23     2     5    1
    24     5     6   ar
    25     6     7   ar
    26     7     8   ar
    27     8    12    1
    28    12    13    1
    29    13    14    1
    30    14    15    1
    31    15    18    1
    32    18    19   ar
    33    19    20   ar
    34    20    21   ar
    35    21    22    1
    36    21    23   ar
    37    23    24   ar
    38    24    25    1
    39    15    16    1
    40    16    17    1
    41     8     9   ar
    42     9    10   ar
    43    10    11    1
    44    46    38   ar
    45    36    31   ar
    46    10     5   ar
    47    46    41   ar
    48    17    12    1
    49    24    18   ar
    50     3     4    1
    51    40    47    1
    52    29    30    1
@<TRIPOS>MOLECULE
*****
 47 52 0 0 0
SMALL
GASTEIGER

@<TRIPOS>ATOM
      1 O         -29.1440   51.9781  -10.6217 O.2     1  UNL1       -0.2701
      2 C         -28.2752   51.1112  -10.3319 C.2     1  UNL1        0.2483
      3 N         -28.6784   49.8080   -9.8699 N.am    1  UNL1       -0.2945
      4 H         -27.9581   49.1983   -9.4212 H       1  UNL1        0.1501
      5 C         -26.8421   51.4666  -10.4360 C.ar    1  UNL1        0.0808
      6 C         -26.1009   51.0400  -11.5506 C.ar    1  UNL1        0.0080
      7 C         -24.7478   51.3665  -11.6718 C.ar    1  UNL1        0.0148
      8 C         -24.1045   52.1118  -10.6726 C.ar    1  UNL1        0.0502
      9 C         -24.8395   52.5298   -9.5520 C.ar    1  UNL1        0.0443
     10 C         -26.1945   52.2072   -9.4281 C.ar    1  UNL1        0.1457
     11 F         -26.8538   52.5830   -8.3029 F       1  UNL1       -0.2040
     12 N         -22.7132   52.4594  -10.8037 N.pl3   1  UNL1       -0.3040
     13 C         -21.8127   51.6454  -11.6309 C.3     1  UNL1        0.1122
     14 C         -20.6152   51.1923  -10.7925 C.3     1  UNL1        0.1123
     15 N         -20.0776   52.3026   -9.9944 N.pl3   1  UNL1       -0.3034
     16 C         -20.6423   53.6515  -10.1078 C.3     1  UNL1        0.1123
     17 C         -22.1735   53.5891  -10.0296 C.3     1  UNL1        0.1122
     18 C         -18.8734   52.1007   -9.2446 C.ar    1  UNL1        0.0587
     19 C         -18.9352   51.9950   -7.8480 C.ar    1  UNL1        0.0162
     20 C         -17.7679   51.8008   -7.1044 C.ar    1  UNL1        0.0127
     21 C         -16.5322   51.7062   -7.7523 C.ar    1  UNL1        0.0586
     22 CL        -15.0681   51.4608   -6.8179 Cl      1  UNL1       -0.0822
     23 C         -16.4651   51.8021   -9.1464 C.ar    1  UNL1        0.0240
     24 C         -17.6311   51.9973   -9.8964 C.ar    1  UNL1        0.0718
     25 CL        -17.5185   52.0741  -11.6496 Cl      1  UNL1       -0.0809
     26 C         -30.0436   49.2697   -9.9607 C.3     1  UNL1        0.1535
     27 C         -30.1405   48.1706  -10.9959 C.2     1  UNL1        0.2443
     28 O         -30.5908   47.0363  -10.6797 O.2     1  UNL1       -0.2730
     29 N         -29.6909   48.4210  -12.3380 N.am    1  UNL1       -0.2825
     30 H         -29.0323   49.2193  -12.4852 H       1  UNL1        0.1549
     31 C         -30.0690   47.6463  -13.4908 C.ar    1  UNL1        0.0535
     32 C         -30.1615   46.2435  -13.4476 C.ar    1  UNL1        0.0353
     33 C         -30.5813   45.5444  -14.5818 C.ar    1  UNL1        0.1002
     34 N         -30.9078   46.2165  -15.7167 N.ar    1  UNL1       -0.2422
     35 C         -30.8420   47.5721  -15.7841 C.ar    1  UNL1        0.1002
     36 C         -30.4301   48.3098  -14.6719 C.ar    1  UNL1        0.0353
     37 C         -30.5610   48.8215   -8.5774 C.3     1  UNL1        0.0569
     38 C         -30.2694   49.8447   -7.5156 C.ar    1  UNL1       -0.0017
     39 C         -31.2041   50.6380   -6.8567 C.ar    1  UNL1        0.0681
     40 N         -30.6094   51.3507   -5.8729 N.ar    1  UNL1       -0.3523
     41 C         -29.3101   51.0068   -5.8977 C.ar    1  UNL1        0.0563
     42 C         -28.3040   51.4468   -5.0388 C.ar    1  UNL1        0.0170
     43 C         -27.0108   50.9227   -5.2173 C.ar    1  UNL1        0.0015
     44 C         -26.7551   49.9812   -6.2384 C.ar    1  UNL1        0.0001
     45 C         -27.7901   49.5547   -7.0899 C.ar    1  UNL1        0.0012
     46 C         -29.0626   50.0909   -6.8882 C.ar    1  UNL1        0.0131
     47 H         -31.0746   52.0114   -5.2115 H       1  UNL1        0.1660
@<TRIPOS>BOND
     1     1     2    2
     2     2     3   am
     3     3    26    1
     4    26    37    1
     5    37    38    1
     6    38    39   ar
     7    39    40   ar
     8    40    41   ar
     9    41    42   ar
    10    42    43   ar
    11    43    44   ar
    12    44    45   ar
    13    45    46   ar
    14    26    27    1
    15    27    28    2
    16    27    29   am
    17    29    31    1
    18    31    32   ar
    19    32    33   ar
    20    33    34   ar
    21    34    35   ar
    22    35    36   ar
    23     2     5    1
    24     5     6   ar
    25     6     7   ar
    26     7     8   ar
    27     8    12    1
    28    12    13    1
    29    13    14    1
    30    14    15    1
    31    15    18    1
    32    18    19   ar
    33    19    20   ar
    34    20    21   ar
    35    21    22    1
    36    21    23   ar
    37    23    24   ar
    38    24    25    1
    39    15    16    1
    40    16    17    1
    41     8     9   ar
    42     9    10   ar
    43    10    11    1
    44    46    38   ar
    45    36    31   ar
    46    10     5   ar
    47    46    41   ar
    48    17    12    1
    49    24    18   ar
    50     3     4    1
    51    40    47    1
    52    29    30    1
@<TRIPOS>MOLECULE
*****
 47 52 0 0 0
SMALL
GASTEIGER

@<TRIPOS>ATOM
      1 O         -22.4185   51.7265  -11.5103 O.2     1  UNL1       -0.2701
      2 C         -22.8932   52.2509  -10.4663 C.2     1  UNL1        0.2483
      3 N         -22.3021   53.4469   -9.9235 N.am    1  UNL1       -0.2945
      4 H         -22.5571   53.7256   -8.9492 H       1  UNL1        0.1501
      5 C         -24.0365   51.5982   -9.7897 C.ar    1  UNL1        0.0808
      6 C         -25.2516   51.4410  -10.4771 C.ar    1  UNL1        0.0080
      7 C         -26.3431   50.8249   -9.8598 C.ar    1  UNL1        0.0148
      8 C         -26.2468   50.3688   -8.5368 C.ar    1  UNL1        0.0502
      9 C         -25.0376   50.5347   -7.8432 C.ar    1  UNL1        0.0443
     10 C         -23.9420   51.1486   -8.4583 C.ar    1  UNL1        0.1457
     11 F         -22.8102   51.3392   -7.7340 F       1  UNL1       -0.2040
     12 N         -27.3676   49.7222   -7.9049 N.pl3   1  UNL1       -0.3040
     13 C         -28.5419   50.4990   -7.4863 C.3     1  UNL1        0.1122
     14 C         -28.8128   50.2586   -5.9993 C.3     1  UNL1        0.1123
     15 N         -28.7205   48.8299   -5.6689 N.pl3   1  UNL1       -0.3034
     16 C         -28.4645   47.8324   -6.7133 C.3     1  UNL1        0.1123
     17 C         -27.2945   48.2845   -7.5972 C.3     1  UNL1        0.1122
     18 C         -29.0712   48.3974   -4.3487 C.ar    1  UNL1        0.0587
     19 C         -30.3521   47.8825   -4.1046 C.ar    1  UNL1        0.0162
     20 C         -30.7080   47.4596   -2.8209 C.ar    1  UNL1        0.0127
     21 C         -29.7844   47.5444   -1.7743 C.ar    1  UNL1        0.0586
     22 CL        -30.2318   47.0118   -0.1640 Cl      1  UNL1       -0.0822
     23 C         -28.5017   48.0492   -2.0135 C.ar    1  UNL1        0.0240
     24 C         -28.1398   48.4748   -3.2973 C.ar    1  UNL1        0.0718
     25 CL        -26.5076   49.0673   -3.5744 Cl      1  UNL1       -0.0809
     26 C         -21.3403   54.3046  -10.6314 C.3     1  UNL1        0.1535
     27 C         -21.1592   55.6333   -9.9306 C.2     1  UNL1        0.2443
     28 O         -22.1621   56.2833   -9.5296 O.2     1  UNL1       -0.2730
     29 N         -19.8352   56.1623   -9.7482 N.am    1  UNL1       -0.2825
     30 H         -19.0778   55.7909  -10.3657 H       1  UNL1        0.1549
     31 C         -19.4781   57.1743   -8.7888 C.ar    1  UNL1        0.0535
     32 C         -19.3753   58.5319   -9.1418 C.ar    1  UNL1        0.0353
     33 C         -19.0742   59.4792   -8.1603 C.ar    1  UNL1        0.1002
     34 N         -18.8914   59.0923   -6.8706 N.ar    1  UNL1       -0.2422
     35 C         -18.9983   57.7902   -6.4970 C.ar    1  UNL1        0.1002
     36 C         -19.3010   56.8114   -7.4462 C.ar    1  UNL1        0.0353
     37 C         -20.0007   53.5728  -10.8593 C.3     1  UNL1        0.0569
     38 C         -19.3539   53.1783   -9.5611 C.ar    1  UNL1       -0.0017
     39 C         -19.9294   53.2570   -8.2962 C.ar    1  UNL1        0.0681
     40 N         -19.1165   52.6974   -7.3715 N.ar    1  UNL1       -0.3523
     41 C         -18.0380   52.2568   -8.0421 C.ar    1  UNL1        0.0563
     42 C         -16.9439   51.5673   -7.5214 C.ar    1  UNL1        0.0170
     43 C         -15.9374   51.1590   -8.4155 C.ar    1  UNL1        0.0015
     44 C         -16.0459   51.4456   -9.7941 C.ar    1  UNL1        0.0001
     45 C         -17.1619   52.1424  -10.2915 C.ar    1  UNL1        0.0012
     46 C         -18.1446   52.5335   -9.3813 C.ar    1  UNL1        0.0131
     47 H         -19.3054   52.6031   -6.3488 H       1  UNL1        0.1660
@<TRIPOS>BOND
     1     1     2    2
     2     2     3   am
     3     3    26    1
     4    26    37    1
     5    37    38    1
     6    38    39   ar
     7    39    40   ar
     8    40    41   ar
     9    41    42   ar
    10    42    43   ar
    11    43    44   ar
    12    44    45   ar
    13    45    46   ar
    14    26    27    1
    15    27    28    2
    16    27    29   am
    17    29    31    1
    18    31    32   ar
    19    32    33   ar
    20    33    34   ar
    21    34    35   ar
    22    35    36   ar
    23     2     5    1
    24     5     6   ar
    25     6     7   ar
    26     7     8   ar
    27     8    12    1
    28    12    13    1
    29    13    14    1
    30    14    15    1
    31    15    18    1
    32    18    19   ar
    33    19    20   ar
    34    20    21   ar
    35    21    22    1
    36    21    23   ar
    37    23    24   ar
    38    24    25    1
    39    15    16    1
    40    16    17    1
    41     8     9   ar
    42     9    10   ar
    43    10    11    1
    44    46    38   ar
    45    36    31   ar
    46    10     5   ar
    47    46    41   ar
    48    17    12    1
    49    24    18   ar
    50     3     4    1
    51    40    47    1
    52    29    30    1
@<TRIPOS>MOLECULE
*****
 47 52 0 0 0
SMALL
GASTEIGER

@<TRIPOS>ATOM
      1 O         -29.2726   51.6029  -10.9899 O.2     1  UNL1       -0.2701
      2 C         -28.4067   50.7911  -10.5640 C.2     1  UNL1        0.2483
      3 N         -28.8022   49.4827  -10.1096 N.am    1  UNL1       -0.2945
      4 H         -28.1157   48.9245   -9.5536 H       1  UNL1        0.1501
      5 C         -26.9906   51.2170  -10.5019 C.ar    1  UNL1        0.0808
      6 C         -26.1084   50.8439  -11.5297 C.ar    1  UNL1        0.0080
      7 C         -24.7683   51.2373  -11.4940 C.ar    1  UNL1        0.0148
      8 C         -24.2793   51.9976  -10.4213 C.ar    1  UNL1        0.0502
      9 C         -25.1555   52.3623   -9.3869 C.ar    1  UNL1        0.0443
     10 C         -26.4981   51.9726   -9.4201 C.ar    1  UNL1        0.1457
     11 F         -27.2977   52.2988   -8.3731 F       1  UNL1       -0.2040
     12 N         -22.9011   52.4141  -10.3909 N.pl3   1  UNL1       -0.3040
     13 C         -21.9092   51.6640   -9.6093 C.3     1  UNL1        0.1122
     14 C         -21.2015   52.6094   -8.6359 C.3     1  UNL1        0.1123
     15 N         -20.8189   53.8631   -9.2998 N.pl3   1  UNL1       -0.3034
     16 C         -21.0661   54.0604  -10.7320 C.3     1  UNL1        0.1123
     17 C         -22.5045   53.6537  -11.0786 C.3     1  UNL1        0.1122
     18 C         -20.0301   54.8185   -8.5801 C.ar    1  UNL1        0.0587
     19 C         -20.3576   56.1800   -8.6470 C.ar    1  UNL1        0.0162
     20 C         -19.5949   57.1226   -7.9521 C.ar    1  UNL1        0.0127
     21 C         -18.5029   56.7099   -7.1821 C.ar    1  UNL1        0.0586
     22 CL        -17.5474   57.8938   -6.3092 Cl      1  UNL1       -0.0822
     23 C         -18.1762   55.3517   -7.1044 C.ar    1  UNL1        0.0240
     24 C         -18.9364   54.4031   -7.7988 C.ar    1  UNL1        0.0718
     25 CL        -18.5247   52.7001   -7.6492 Cl      1  UNL1       -0.0809
     26 C         -30.1179   48.8721  -10.3499 C.3     1  UNL1        0.1535
     27 C         -30.0610   47.8478  -11.4620 C.2     1  UNL1        0.2443
     28 O         -30.2672   46.6287  -11.2157 O.2     1  UNL1       -0.2730
     29 N         -29.7443   48.2713  -12.7986 N.am    1  UNL1       -0.2825
     30 H         -29.2601   49.1909  -12.9114 H       1  UNL1        0.1549
     31 C         -30.0317   47.5175  -13.9907 C.ar    1  UNL1        0.0535
     32 C         -30.2096   46.1225  -13.9649 C.ar    1  UNL1        0.0353
     33 C         -30.5361   45.4466  -15.1431 C.ar    1  UNL1        0.1002
     34 N         -30.6905   46.1343  -16.3048 N.ar    1  UNL1       -0.2422
     35 C         -30.5391   47.4836  -16.3579 C.ar    1  UNL1        0.1002
     36 C         -30.2157   48.1984  -15.2024 C.ar    1  UNL1        0.0353
     37 C         -30.7121   48.2939   -9.0481 C.3     1  UNL1        0.0569
     38 C         -29.7434   48.3906   -7.9029 C.ar    1  UNL1       -0.0017
     39 C         -28.8041   47.4318   -7.5348 C.ar    1  UNL1        0.0681
     40 N         -28.0126   47.9016   -6.5438 N.ar    1  UNL1       -0.3523
     41 C         -28.4367   49.1516   -6.2900 C.ar    1  UNL1        0.0563
     42 C         -27.8980   50.0565   -5.3764 C.ar    1  UNL1        0.0170
     43 C         -28.4743   51.3377   -5.3016 C.ar    1  UNL1        0.0015
     44 C         -29.5636   51.6818   -6.1320 C.ar    1  UNL1        0.0001
     45 C         -30.0861   50.7484   -7.0453 C.ar    1  UNL1        0.0012
     46 C         -29.4932   49.4862   -7.0981 C.ar    1  UNL1        0.0131
     47 H         -27.2160   47.4014   -6.0903 H       1  UNL1        0.1660
@<TRIPOS>BOND
     1     1     2    2
     2     2     3   am
     3     3    26    1
     4    26    37    1
     5    37    38    1
     6    38    39   ar
     7    39    40   ar
     8    40    41   ar
     9    41    42   ar
    10    42    43   ar
    11    43    44   ar
    12    44    45   ar
    13    45    46   ar
    14    26    27    1
    15    27    28    2
    16    27    29   am
    17    29    31    1
    18    31    32   ar
    19    32    33   ar
    20    33    34   ar
    21    34    35   ar
    22    35    36   ar
    23     2     5    1
    24     5     6   ar
    25     6     7   ar
    26     7     8   ar
    27     8    12    1
    28    12    13    1
    29    13    14    1
    30    14    15    1
    31    15    18    1
    32    18    19   ar
    33    19    20   ar
    34    20    21   ar
    35    21    22    1
    36    21    23   ar
    37    23    24   ar
    38    24    25    1
    39    15    16    1
    40    16    17    1
    41     8     9   ar
    42     9    10   ar
    43    10    11    1
    44    46    38   ar
    45    36    31   ar
    46    10     5   ar
    47    46    41   ar
    48    17    12    1
    49    24    18   ar
    50     3     4    1
    51    40    47    1
    52    29    30    1
