@<TRIPOS>MOLECULE
*****
 28 30 0 0 0
SMALL
GASTEIGER

@<TRIPOS>ATOM
      1 C          46.1436   14.2477  -24.8486 C.ar    1  UNL1        0.1719
      2 C          47.0152   14.7999  -23.8896 C.ar    1  UNL1        0.0397
      3 C          47.4147   14.0489  -22.7821 C.ar    1  UNL1       -0.0009
      4 C          46.9686   12.7302  -22.6211 C.ar    1  UNL1       -0.0176
      5 C          46.1347   12.1635  -23.5967 C.ar    1  UNL1        0.0356
      6 C          45.7256   12.9169  -24.7059 C.ar    1  UNL1        0.1674
      7 O          44.8861   12.3535  -25.6654 O.3     1  UNL1       -0.5029
      8 H          44.5601   11.3970  -25.5895 H       1  UNL1        0.2923
      9 O          45.6617   14.9830  -25.9457 O.3     1  UNL1       -0.4720
     10 C          46.4039   15.3152  -27.1232 C.3     1  UNL1        0.2118
     11 C          45.6102   14.9918  -28.3967 C.3     1  UNL1        0.0931
     12 C          46.6114   11.0656  -29.7922 C.ar    1  UNL1       -0.0030
     13 C          46.1440   12.0217  -30.7038 C.ar    1  UNL1       -0.0015
     14 C          45.7804   13.2928  -30.2579 C.ar    1  UNL1        0.0145
     15 C          45.8861   13.6016  -28.8938 C.ar    1  UNL1        0.0627
     16 N          46.3212   12.6513  -28.0215 N.ar    1  UNL1       -0.2484
     17 C          46.6698   11.4029  -28.4322 C.ar    1  UNL1        0.0941
     18 C          48.0550    9.0850  -29.3377 C.3     1  UNL1        0.0051
     19 C          47.0008    9.6895  -30.2587 C.3     1  UNL1        0.0279
     20 C          47.4034   11.9252  -21.4225 C.3     1  UNL1        0.0469
     21 C          48.8806   11.5089  -21.5092 C.3     1  UNL1        0.1369
     22 S          49.6046   11.4863  -19.8158 S.3     1  UNL1       -0.0482
     23 C          49.8262    9.7183  -19.9255 C.2     1  UNL1        0.2792
     24 O          50.2118    9.0232  -18.9501 O.2     1  UNL1       -0.2625
     25 N          49.5248    9.1437  -21.1792 N.am    1  UNL1       -0.2460
     26 C          49.0430   10.1267  -22.0748 C.2     1  UNL1        0.2392
     27 O          48.7927    9.8513  -23.2780 O.2     1  UNL1       -0.2737
     28 H          49.6478    8.1337  -21.4151 H       1  UNL1        0.1583
@<TRIPOS>BOND
     1    18    19    1
     2    19    12    1
     3    12    13   ar
     4    13    14   ar
     5    14    15   ar
     6    15    11    1
     7    11    10    1
     8    10     9    1
     9     9     1    1
    10     1     2   ar
    11     2     3   ar
    12     3     4   ar
    13     4    20    1
    14    20    21    1
    15    21    22    1
    16    22    23    1
    17    23    24    2
    18    23    25   am
    19    25    26   am
    20    26    27    2
    21     4     5   ar
    22     5     6   ar
    23     6     7    1
    24    15    16   ar
    25    16    17   ar
    26    17    12   ar
    27     6     1   ar
    28    26    21    1
    29    25    28    1
    30     7     8    1
@<TRIPOS>MOLECULE
*****
 28 30 0 0 0
SMALL
GASTEIGER

@<TRIPOS>ATOM
      1 C          47.8688   11.0274  -23.1049 C.ar    1  UNL1        0.1719
      2 C          49.1480   10.4599  -22.9437 C.ar    1  UNL1        0.0397
      3 C          49.7377   10.3937  -21.6796 C.ar    1  UNL1       -0.0009
      4 C          49.0561   10.8735  -20.5530 C.ar    1  UNL1       -0.0176
      5 C          47.7646   11.4002  -20.7045 C.ar    1  UNL1        0.0356
      6 C          47.1726   11.4752  -21.9731 C.ar    1  UNL1        0.1674
      7 O          45.8945   12.0117  -22.1200 O.3     1  UNL1       -0.5029
      8 H          45.3665   12.3506  -21.3242 H       1  UNL1        0.2923
      9 O          47.2596   11.1757  -24.3632 O.3     1  UNL1       -0.4720
     10 C          47.4601   12.2657  -25.2683 C.3     1  UNL1        0.2118
     11 C          46.1542   12.6562  -25.9744 C.3     1  UNL1        0.0931
     12 C          46.1854   12.1257  -30.2268 C.ar    1  UNL1       -0.0030
     13 C          46.5321   11.0514  -29.3965 C.ar    1  UNL1       -0.0015
     14 C          46.5609   11.2197  -28.0118 C.ar    1  UNL1        0.0145
     15 C          46.2418   12.4702  -27.4622 C.ar    1  UNL1        0.0627
     16 N          45.9295   13.5069  -28.2875 N.ar    1  UNL1       -0.2484
     17 C          45.9064   13.3685  -29.6398 C.ar    1  UNL1        0.0941
     18 C          45.7340   13.2574  -32.4015 C.3     1  UNL1        0.0051
     19 C          46.1564   11.9595  -31.7216 C.3     1  UNL1        0.0279
     20 C          49.6990   10.7995  -19.1911 C.3     1  UNL1        0.0469
     21 C          50.0987   12.1867  -18.6631 C.3     1  UNL1        0.1369
     22 S          49.6781   12.2986  -16.8735 S.3     1  UNL1       -0.0482
     23 C          51.4119   12.4170  -16.4651 C.2     1  UNL1        0.2792
     24 O          51.8296   12.4032  -15.2783 O.2     1  UNL1       -0.2625
     25 N          52.2913   12.5123  -17.5653 N.am    1  UNL1       -0.2460
     26 C          51.5764   12.4297  -18.7829 C.2     1  UNL1        0.2392
     27 O          52.1527   12.5774  -19.8930 O.2     1  UNL1       -0.2737
     28 H          53.3257   12.6345  -17.4904 H       1  UNL1        0.1583
@<TRIPOS>BOND
     1    18    19    1
     2    19    12    1
     3    12    13   ar
     4    13    14   ar
     5    14    15   ar
     6    15    11    1
     7    11    10    1
     8    10     9    1
     9     9     1    1
    10     1     2   ar
    11     2     3   ar
    12     3     4   ar
    13     4    20    1
    14    20    21    1
    15    21    22    1
    16    22    23    1
    17    23    24    2
    18    23    25   am
    19    25    26   am
    20    26    27    2
    21     4     5   ar
    22     5     6   ar
    23     6     7    1
    24    15    16   ar
    25    16    17   ar
    26    17    12   ar
    27     6     1   ar
    28    26    21    1
    29    25    28    1
    30     7     8    1
@<TRIPOS>MOLECULE
*****
 28 30 0 0 0
SMALL
GASTEIGER

@<TRIPOS>ATOM
      1 C          45.9058   13.9807  -24.8322 C.ar    1  UNL1        0.1719
      2 C          46.9806   14.5385  -24.1124 C.ar    1  UNL1        0.0397
      3 C          47.4621   13.9107  -22.9618 C.ar    1  UNL1       -0.0009
      4 C          46.8946   12.7079  -22.5197 C.ar    1  UNL1       -0.0176
      5 C          45.8524   12.1282  -23.2585 C.ar    1  UNL1        0.0356
      6 C          45.3614   12.7595  -24.4099 C.ar    1  UNL1        0.1674
      7 O          44.3167   12.1861  -25.1329 O.3     1  UNL1       -0.5029
      8 H          43.8960   11.3081  -24.8517 H       1  UNL1        0.2923
      9 O          45.3433   14.6065  -25.9585 O.3     1  UNL1       -0.4720
     10 C          45.9567   14.7236  -27.2460 C.3     1  UNL1        0.2118
     11 C          46.2120   16.1917  -27.6145 C.3     1  UNL1        0.0931
     12 C          50.1665   17.5414  -26.6626 C.ar    1  UNL1       -0.0030
     13 C          49.9047   16.1661  -26.7239 C.ar    1  UNL1       -0.0015
     14 C          48.6140   15.7123  -26.9975 C.ar    1  UNL1        0.0145
     15 C          47.5859   16.6429  -27.2084 C.ar    1  UNL1        0.0627
     16 N          47.8566   17.9743  -27.1222 N.ar    1  UNL1       -0.2484
     17 C          49.1042   18.4386  -26.8455 C.ar    1  UNL1        0.0941
     18 C          51.7343   18.2645  -24.8646 C.3     1  UNL1        0.0051
     19 C          51.5521   18.0440  -26.3624 C.3     1  UNL1        0.0279
     20 C          47.4191   12.0358  -21.2761 C.3     1  UNL1        0.0469
     21 C          48.8749   11.5702  -21.4394 C.3     1  UNL1        0.1369
     22 S          49.6847   11.5203  -19.7859 S.3     1  UNL1       -0.0482
     23 C          49.8406    9.7461  -19.9067 C.2     1  UNL1        0.2792
     24 O          50.2528    9.0368  -18.9526 O.2     1  UNL1       -0.2625
     25 N          49.4554    9.1840  -21.1431 N.am    1  UNL1       -0.2460
     26 C          48.9611   10.1841  -22.0125 C.2     1  UNL1        0.2392
     27 O          48.6395    9.9193  -23.2010 O.2     1  UNL1       -0.2737
     28 H          49.5319    8.1709  -21.3849 H       1  UNL1        0.1583
@<TRIPOS>BOND
     1    18    19    1
     2    19    12    1
     3    12    13   ar
     4    13    14   ar
     5    14    15   ar
     6    15    11    1
     7    11    10    1
     8    10     9    1
     9     9     1    1
    10     1     2   ar
    11     2     3   ar
    12     3     4   ar
    13     4    20    1
    14    20    21    1
    15    21    22    1
    16    22    23    1
    17    23    24    2
    18    23    25   am
    19    25    26   am
    20    26    27    2
    21     4     5   ar
    22     5     6   ar
    23     6     7    1
    24    15    16   ar
    25    16    17   ar
    26    17    12   ar
    27     6     1   ar
    28    26    21    1
    29    25    28    1
    30     7     8    1
@<TRIPOS>MOLECULE
*****
 28 30 0 0 0
SMALL
GASTEIGER

@<TRIPOS>ATOM
      1 C          51.2528    9.5845  -24.6102 C.ar    1  UNL1        0.1719
      2 C          50.6004    8.4272  -24.1418 C.ar    1  UNL1        0.0397
      3 C          49.7771    8.4869  -23.0155 C.ar    1  UNL1       -0.0009
      4 C          49.5746    9.7027  -22.3485 C.ar    1  UNL1       -0.0176
      5 C          50.1892   10.8650  -22.8381 C.ar    1  UNL1        0.0356
      6 C          51.0224   10.8074  -23.9640 C.ar    1  UNL1        0.1674
      7 O          51.6414   11.9627  -24.4384 O.3     1  UNL1       -0.5029
      8 H          51.5018   12.8613  -23.9912 H       1  UNL1        0.2923
      9 O          52.1413    9.5640  -25.6996 O.3     1  UNL1       -0.4720
     10 C          51.8241    9.9276  -27.0468 C.3     1  UNL1        0.2118
     11 C          50.3864    9.5320  -27.4111 C.3     1  UNL1        0.0931
     12 C          50.2787    7.3114  -31.0747 C.ar    1  UNL1       -0.0030
     13 C          49.0797    7.6000  -30.4093 C.ar    1  UNL1       -0.0015
     14 C          49.1023    8.2910  -29.1974 C.ar    1  UNL1        0.0145
     15 C          50.3322    8.6909  -28.6543 C.ar    1  UNL1        0.0627
     16 N          51.4869    8.3810  -29.3054 N.ar    1  UNL1       -0.2484
     17 C          51.4890    7.6985  -30.4814 C.ar    1  UNL1        0.0941
     18 C          48.8673    6.0542  -32.6998 C.3     1  UNL1        0.0051
     19 C          50.2689    6.5616  -32.3788 C.3     1  UNL1        0.0279
     20 C          48.6849    9.7598  -21.1325 C.3     1  UNL1        0.0469
     21 C          48.8080   11.0986  -20.3871 C.3     1  UNL1        0.1369
     22 S          47.3011   12.1093  -20.7031 S.3     1  UNL1       -0.0482
     23 C          46.8514   11.9923  -18.9794 C.2     1  UNL1        0.2792
     24 O          45.7562   12.4243  -18.5354 O.2     1  UNL1       -0.2625
     25 N          47.8017   11.3669  -18.1435 N.am    1  UNL1       -0.2460
     26 C          48.9048   10.9074  -18.9002 C.2     1  UNL1        0.2392
     27 O          49.9119   10.3933  -18.3455 O.2     1  UNL1       -0.2737
     28 H          47.7066   11.2644  -17.1086 H       1  UNL1        0.1583
@<TRIPOS>BOND
     1    18    19    1
     2    19    12    1
     3    12    13   ar
     4    13    14   ar
     5    14    15   ar
     6    15    11    1
     7    11    10    1
     8    10     9    1
     9     9     1    1
    10     1     2   ar
    11     2     3   ar
    12     3     4   ar
    13     4    20    1
    14    20    21    1
    15    21    22    1
    16    22    23    1
    17    23    24    2
    18    23    25   am
    19    25    26   am
    20    26    27    2
    21     4     5   ar
    22     5     6   ar
    23     6     7    1
    24    15    16   ar
    25    16    17   ar
    26    17    12   ar
    27     6     1   ar
    28    26    21    1
    29    25    28    1
    30     7     8    1
@<TRIPOS>MOLECULE
*****
 28 30 0 0 0
SMALL
GASTEIGER

@<TRIPOS>ATOM
      1 C          50.4433   10.2879  -26.9644 C.ar    1  UNL1        0.1719
      2 C          51.7246   10.8732  -26.9707 C.ar    1  UNL1        0.0397
      3 C          52.6862   10.4593  -27.8949 C.ar    1  UNL1       -0.0009
      4 C          52.3822    9.4701  -28.8399 C.ar    1  UNL1       -0.0176
      5 C          51.0936    8.9159  -28.8634 C.ar    1  UNL1        0.0356
      6 C          50.1281    9.3235  -27.9323 C.ar    1  UNL1        0.1674
      7 O          48.8533    8.7600  -27.9513 O.3     1  UNL1       -0.5029
      8 H          48.5945    8.0560  -28.6328 H       1  UNL1        0.2923
      9 O          49.4625   10.6235  -26.0147 O.3     1  UNL1       -0.4720
     10 C          48.7938   11.8842  -25.9100 C.3     1  UNL1        0.2118
     11 C          47.2746   11.7282  -26.0652 C.3     1  UNL1        0.0931
     12 C          46.2623   11.9319  -30.2244 C.ar    1  UNL1       -0.0030
     13 C          46.0749   13.0598  -29.4143 C.ar    1  UNL1       -0.0015
     14 C          46.3665   12.9972  -28.0513 C.ar    1  UNL1        0.0145
     15 C          46.8458   11.7985  -27.5029 C.ar    1  UNL1        0.0627
     16 N          46.9996   10.7077  -28.3029 N.ar    1  UNL1       -0.2484
     17 C          46.7108   10.7429  -29.6311 C.ar    1  UNL1        0.0941
     18 C          45.7101   13.4213  -32.1454 C.3     1  UNL1        0.0051
     19 C          45.9461   11.9840  -31.6941 C.3     1  UNL1        0.0279
     20 C          53.4255    9.0275  -29.8345 C.3     1  UNL1        0.0469
     21 C          53.4464    7.5006  -30.0111 C.3     1  UNL1        0.1369
     22 S          52.4423    7.0472  -31.4871 S.3     1  UNL1       -0.0482
     23 C          53.9106    6.4606  -32.3158 C.2     1  UNL1        0.2792
     24 O          53.9066    6.0925  -33.5191 O.2     1  UNL1       -0.2625
     25 N          55.0869    6.4500  -31.5355 N.am    1  UNL1       -0.2460
     26 C          54.8358    6.9810  -30.2488 C.2     1  UNL1        0.2392
     27 O          55.7256    6.9889  -29.3576 O.2     1  UNL1       -0.2737
     28 H          56.0127    6.0926  -31.8608 H       1  UNL1        0.1583
@<TRIPOS>BOND
     1    18    19    1
     2    19    12    1
     3    12    13   ar
     4    13    14   ar
     5    14    15   ar
     6    15    11    1
     7    11    10    1
     8    10     9    1
     9     9     1    1
    10     1     2   ar
    11     2     3   ar
    12     3     4   ar
    13     4    20    1
    14    20    21    1
    15    21    22    1
    16    22    23    1
    17    23    24    2
    18    23    25   am
    19    25    26   am
    20    26    27    2
    21     4     5   ar
    22     5     6   ar
    23     6     7    1
    24    15    16   ar
    25    16    17   ar
    26    17    12   ar
    27     6     1   ar
    28    26    21    1
    29    25    28    1
    30     7     8    1
@<TRIPOS>MOLECULE
*****
 28 30 0 0 0
SMALL
GASTEIGER

@<TRIPOS>ATOM
      1 C          47.4166   11.8990  -22.4276 C.ar    1  UNL1        0.1719
      2 C          48.2043   13.0446  -22.2012 C.ar    1  UNL1        0.0397
      3 C          48.5966   13.3880  -20.9057 C.ar    1  UNL1       -0.0009
      4 C          48.2275   12.5865  -19.8170 C.ar    1  UNL1       -0.0176
      5 C          47.4790   11.4218  -20.0443 C.ar    1  UNL1        0.0356
      6 C          47.0771   11.0781  -21.3426 C.ar    1  UNL1        0.1674
      7 O          46.3221    9.9270  -21.5615 O.3     1  UNL1       -0.5029
      8 H          46.0538    9.3154  -20.7993 H       1  UNL1        0.2923
      9 O          46.9426   11.5462  -23.7033 O.3     1  UNL1       -0.4720
     10 C          47.4161   12.0701  -24.9478 C.3     1  UNL1        0.2118
     11 C          46.3077   12.8208  -25.6988 C.3     1  UNL1        0.0931
     12 C          46.2330   12.0989  -29.9223 C.ar    1  UNL1       -0.0030
     13 C          46.5707   11.0544  -29.0514 C.ar    1  UNL1       -0.0015
     14 C          46.6338   11.2840  -27.6766 C.ar    1  UNL1        0.0145
     15 C          46.3582   12.5658  -27.1781 C.ar    1  UNL1        0.0627
     16 N          46.0540   13.5722  -28.0431 N.ar    1  UNL1       -0.2484
     17 C          45.9981   13.3737  -29.3870 C.ar    1  UNL1        0.0941
     18 C          45.5840   13.0820  -32.1191 C.3     1  UNL1        0.0051
     19 C          46.1674   11.8664  -31.4071 C.3     1  UNL1        0.0279
     20 C          48.6540   12.9635  -18.4207 C.3     1  UNL1        0.0469
     21 C          49.5629   11.8989  -17.7854 C.3     1  UNL1        0.1369
     22 S          51.3094   12.4810  -17.8417 S.3     1  UNL1       -0.0482
     23 C          51.3462   12.5685  -16.0590 C.2     1  UNL1        0.2792
     24 O          52.3205   13.0509  -15.4256 O.2     1  UNL1       -0.2625
     25 N          50.1994   12.0731  -15.4015 N.am    1  UNL1       -0.2460
     26 C          49.2257   11.6611  -16.3409 C.2     1  UNL1        0.2392
     27 O          48.1553   11.1069  -15.9756 O.2     1  UNL1       -0.2737
     28 H          50.0886   12.0123  -14.3648 H       1  UNL1        0.1583
@<TRIPOS>BOND
     1    18    19    1
     2    19    12    1
     3    12    13   ar
     4    13    14   ar
     5    14    15   ar
     6    15    11    1
     7    11    10    1
     8    10     9    1
     9     9     1    1
    10     1     2   ar
    11     2     3   ar
    12     3     4   ar
    13     4    20    1
    14    20    21    1
    15    21    22    1
    16    22    23    1
    17    23    24    2
    18    23    25   am
    19    25    26   am
    20    26    27    2
    21     4     5   ar
    22     5     6   ar
    23     6     7    1
    24    15    16   ar
    25    16    17   ar
    26    17    12   ar
    27     6     1   ar
    28    26    21    1
    29    25    28    1
    30     7     8    1
@<TRIPOS>MOLECULE
*****
 28 30 0 0 0
SMALL
GASTEIGER

@<TRIPOS>ATOM
      1 C          51.2774   11.9179  -23.8208 C.ar    1  UNL1        0.1719
      2 C          51.2445   12.4774  -25.1132 C.ar    1  UNL1        0.0397
      3 C          50.8066   13.7896  -25.3043 C.ar    1  UNL1       -0.0009
      4 C          50.4127   14.5723  -24.2106 C.ar    1  UNL1       -0.0176
      5 C          50.4849   14.0317  -22.9180 C.ar    1  UNL1        0.0356
      6 C          50.9168   12.7123  -22.7231 C.ar    1  UNL1        0.1674
      7 O          50.9739   12.1756  -21.4380 O.3     1  UNL1       -0.5029
      8 H          50.7142   12.7199  -20.6236 H       1  UNL1        0.2923
      9 O          51.6484   10.5828  -23.5832 O.3     1  UNL1       -0.4720
     10 C          51.2103    9.4451  -24.3324 C.3     1  UNL1        0.2118
     11 C          50.2920    8.5426  -23.4966 C.3     1  UNL1        0.0931
     12 C          47.5018   10.9789  -21.3415 C.ar    1  UNL1       -0.0030
     13 C          48.3109   10.0746  -20.6406 C.ar    1  UNL1       -0.0015
     14 C          49.1983    9.2498  -21.3325 C.ar    1  UNL1        0.0145
     15 C          49.2708    9.3341  -22.7308 C.ar    1  UNL1        0.0627
     16 N          48.4601   10.2033  -23.3945 N.ar    1  UNL1       -0.2484
     17 C          47.5800   11.0082  -22.7415 C.ar    1  UNL1        0.0941
     18 C          46.9364   12.0099  -19.1436 C.3     1  UNL1        0.0051
     19 C          46.5364   11.8695  -20.6083 C.3     1  UNL1        0.0279
     20 C          49.9403   15.9882  -24.4243 C.3     1  UNL1        0.0469
     21 C          50.5627   16.6234  -25.6782 C.3     1  UNL1        0.1369
     22 S          49.2694   16.7898  -26.9790 S.3     1  UNL1       -0.0482
     23 C          49.3840   18.5684  -26.8768 C.2     1  UNL1        0.2792
     24 O          48.6000   19.3333  -27.4960 O.2     1  UNL1       -0.2625
     25 N          50.4066   19.0654  -26.0400 N.am    1  UNL1       -0.2460
     26 C          51.0919   18.0028  -25.4062 C.2     1  UNL1        0.2392
     27 O          52.0990   18.2129  -24.6796 O.2     1  UNL1       -0.2737
     28 H          50.6309   20.0774  -25.9126 H       1  UNL1        0.1583
@<TRIPOS>BOND
     1    18    19    1
     2    19    12    1
     3    12    13   ar
     4    13    14   ar
     5    14    15   ar
     6    15    11    1
     7    11    10    1
     8    10     9    1
     9     9     1    1
    10     1     2   ar
    11     2     3   ar
    12     3     4   ar
    13     4    20    1
    14    20    21    1
    15    21    22    1
    16    22    23    1
    17    23    24    2
    18    23    25   am
    19    25    26   am
    20    26    27    2
    21     4     5   ar
    22     5     6   ar
    23     6     7    1
    24    15    16   ar
    25    16    17   ar
    26    17    12   ar
    27     6     1   ar
    28    26    21    1
    29    25    28    1
    30     7     8    1
@<TRIPOS>MOLECULE
*****
 28 30 0 0 0
SMALL
GASTEIGER

@<TRIPOS>ATOM
      1 C          46.0968   11.9752  -25.9831 C.ar    1  UNL1        0.1719
      2 C          47.4672   11.9545  -25.6579 C.ar    1  UNL1        0.0397
      3 C          47.8838   12.1499  -24.3394 C.ar    1  UNL1       -0.0009
      4 C          46.9427   12.3500  -23.3205 C.ar    1  UNL1       -0.0176
      5 C          45.5755   12.3286  -23.6348 C.ar    1  UNL1        0.0356
      6 C          45.1540   12.1402  -24.9584 C.ar    1  UNL1        0.1674
      7 O          43.7948   12.1332  -25.2674 O.3     1  UNL1       -0.5029
      8 H          43.0874   12.2564  -24.5523 H       1  UNL1        0.2923
      9 O          45.6301   11.8478  -27.3031 O.3     1  UNL1       -0.4720
     10 C          46.3722   12.1538  -28.4877 C.3     1  UNL1        0.2118
     11 C          46.0187   13.5466  -29.0273 C.3     1  UNL1        0.0931
     12 C          46.8422   16.4819  -26.0154 C.ar    1  UNL1       -0.0030
     13 C          45.5858   16.4658  -26.6356 C.ar    1  UNL1       -0.0015
     14 C          45.3157   15.5389  -27.6428 C.ar    1  UNL1        0.0145
     15 C          46.3111   14.6283  -28.0271 C.ar    1  UNL1        0.0627
     16 N          47.5324   14.6753  -27.4276 N.ar    1  UNL1       -0.2484
     17 C          47.8211   15.5774  -26.4522 C.ar    1  UNL1        0.0941
     18 C          46.7955   16.9147  -23.5610 C.3     1  UNL1        0.0051
     19 C          47.1486   17.4800  -24.9325 C.3     1  UNL1        0.0279
     20 C          47.3995   12.5611  -21.8991 C.3     1  UNL1        0.0469
     21 C          47.0834   11.3523  -21.0036 C.3     1  UNL1        0.1369
     22 S          48.4049   10.0855  -21.2062 S.3     1  UNL1       -0.0482
     23 C          48.9052   10.3243  -19.5093 C.2     1  UNL1        0.2792
     24 O          49.9282    9.7769  -19.0224 O.2     1  UNL1       -0.2625
     25 N          48.0840   11.1837  -18.7477 N.am    1  UNL1       -0.2460
     26 C          47.0507   11.7239  -19.5483 C.2     1  UNL1        0.2392
     27 O          46.1496   12.4512  -19.0531 O.2     1  UNL1       -0.2737
     28 H          48.2167   11.3866  -17.7319 H       1  UNL1        0.1583
@<TRIPOS>BOND
     1    18    19    1
     2    19    12    1
     3    12    13   ar
     4    13    14   ar
     5    14    15   ar
     6    15    11    1
     7    11    10    1
     8    10     9    1
     9     9     1    1
    10     1     2   ar
    11     2     3   ar
    12     3     4   ar
    13     4    20    1
    14    20    21    1
    15    21    22    1
    16    22    23    1
    17    23    24    2
    18    23    25   am
    19    25    26   am
    20    26    27    2
    21     4     5   ar
    22     5     6   ar
    23     6     7    1
    24    15    16   ar
    25    16    17   ar
    26    17    12   ar
    27     6     1   ar
    28    26    21    1
    29    25    28    1
    30     7     8    1
@<TRIPOS>MOLECULE
*****
 28 30 0 0 0
SMALL
GASTEIGER

@<TRIPOS>ATOM
      1 C          47.1127   14.7576  -23.8958 C.ar    1  UNL1        0.1719
      2 C          47.4482   13.3909  -23.8348 C.ar    1  UNL1        0.0397
      3 C          48.5876   12.9729  -23.1441 C.ar    1  UNL1       -0.0009
      4 C          49.4008   13.9061  -22.4870 C.ar    1  UNL1       -0.0176
      5 C          49.0456   15.2632  -22.5103 C.ar    1  UNL1        0.0356
      6 C          47.9066   15.6872  -23.2090 C.ar    1  UNL1        0.1674
      7 O          47.5656   17.0384  -23.2403 O.3     1  UNL1       -0.5029
      8 H          48.1210   17.7371  -22.7606 H       1  UNL1        0.2923
      9 O          46.0135   15.2352  -24.6309 O.3     1  UNL1       -0.4720
     10 C          45.6668   14.8511  -25.9650 C.3     1  UNL1        0.2118
     11 C          46.0711   15.9277  -26.9818 C.3     1  UNL1        0.0931
     12 C          50.0172   17.5148  -26.4582 C.ar    1  UNL1       -0.0030
     13 C          49.8594   16.1909  -26.8894 C.ar    1  UNL1       -0.0015
     14 C          48.5811   15.6497  -27.0299 C.ar    1  UNL1        0.0145
     15 C          47.4609   16.4408  -26.7353 C.ar    1  UNL1        0.0627
     16 N          47.6367   17.7175  -26.2963 N.ar    1  UNL1       -0.2484
     17 C          48.8731   18.2614  -26.1412 C.ar    1  UNL1        0.0941
     18 C          51.7753   18.1853  -24.8233 C.3     1  UNL1        0.0051
     19 C          51.3898   18.1086  -26.2966 C.3     1  UNL1        0.0279
     20 C          50.6301   13.4480  -21.7436 C.3     1  UNL1        0.0469
     21 C          50.4712   13.5863  -20.2209 C.3     1  UNL1        0.1369
     22 S          49.0738   12.5266  -19.6583 S.3     1  UNL1       -0.0482
     23 C          50.2108   11.4997  -18.7419 C.2     1  UNL1        0.2792
     24 O          49.8535   10.4353  -18.1739 O.2     1  UNL1       -0.2625
     25 N          51.5475   11.9523  -18.7074 N.am    1  UNL1       -0.2460
     26 C          51.6963   13.1253  -19.4836 C.2     1  UNL1        0.2392
     27 O          52.7893   13.7497  -19.5254 O.2     1  UNL1       -0.2737
     28 H          52.3182   11.4893  -18.1762 H       1  UNL1        0.1583
@<TRIPOS>BOND
     1    18    19    1
     2    19    12    1
     3    12    13   ar
     4    13    14   ar
     5    14    15   ar
     6    15    11    1
     7    11    10    1
     8    10     9    1
     9     9     1    1
    10     1     2   ar
    11     2     3   ar
    12     3     4   ar
    13     4    20    1
    14    20    21    1
    15    21    22    1
    16    22    23    1
    17    23    24    2
    18    23    25   am
    19    25    26   am
    20    26    27    2
    21     4     5   ar
    22     5     6   ar
    23     6     7    1
    24    15    16   ar
    25    16    17   ar
    26    17    12   ar
    27     6     1   ar
    28    26    21    1
    29    25    28    1
    30     7     8    1
