@<TRIPOS>MOLECULE
*****
 50 55 0 0 0
SMALL
GASTEIGER

@<TRIPOS>ATOM
      1 C          -8.2232  -11.3360   30.2037 C.2     1  UNL1        0.2483
      2 O          -7.7507  -10.1828   30.0094 O.2     1  UNL1       -0.2701
      3 N          -9.1079  -11.5666   31.3139 N.am    1  UNL1       -0.2945
      4 H          -9.5860  -12.4917   31.3938 H       1  UNL1        0.1501
      5 C          -9.3479  -15.5798   27.7608 C.3     1  UNL1        0.0347
      6 C          -8.3506  -14.5053   28.1077 C.ar    1  UNL1        0.0191
      7 C          -7.0712  -14.4818   27.5099 C.ar    1  UNL1        0.0461
      8 C          -6.1621  -13.4759   27.8590 C.ar    1  UNL1        0.0145
      9 C          -6.5230  -12.4738   28.7579 C.ar    1  UNL1        0.0080
     10 C          -7.8078  -12.4510   29.3212 C.ar    1  UNL1        0.0805
     11 C          -8.7159  -13.4787   28.9994 C.ar    1  UNL1        0.1416
     12 F          -9.9730  -13.4572   29.5165 F       1  UNL1       -0.2043
     13 N          -6.6913  -15.4634   26.5309 N.pl3   1  UNL1       -0.3043
     14 C          -5.6211  -16.4247   26.8069 C.3     1  UNL1        0.1122
     15 C          -4.4602  -16.1921   25.8384 C.3     1  UNL1        0.1122
     16 N          -4.9638  -16.0904   24.4611 N.pl3   1  UNL1       -0.3041
     17 C          -6.0586  -15.1479   24.1896 C.3     1  UNL1        0.1122
     18 C          -7.2123  -15.3889   25.1640 C.3     1  UNL1        0.1122
     19 C          -4.1937  -16.6413   23.3761 C.ar    1  UNL1        0.0479
     20 C          -3.7003  -17.9544   23.4412 C.ar    1  UNL1        0.0145
     21 C          -2.9504  -18.4818   22.3861 C.ar    1  UNL1        0.0051
     22 C          -2.6935  -17.7113   21.2392 C.ar    1  UNL1        0.0715
     23 C          -3.1625  -16.3875   21.1892 C.ar    1  UNL1        0.0051
     24 C          -3.9131  -15.8612   22.2442 C.ar    1  UNL1        0.0145
     25 C          -1.8420  -18.2627   20.1235 C.3     1  UNL1        0.4186
     26 F          -2.6075  -19.1079   19.3421 F       1  UNL1       -0.1659
     27 F          -0.7667  -18.9700   20.6330 F       1  UNL1       -0.1659
     28 F          -1.3500  -17.2390   19.3323 F       1  UNL1       -0.1659
     29 C          -9.0731  -10.7304   32.5192 C.3     1  UNL1        0.1535
     30 C          -9.0545   -9.2743   32.1361 C.2     1  UNL1        0.2443
     31 O          -8.2653   -8.4842   32.7231 O.2     1  UNL1       -0.2730
     32 N          -9.8620   -8.8127   31.0412 N.am    1  UNL1       -0.2825
     33 H         -10.2415   -9.5281   30.3803 H       1  UNL1        0.1549
     34 C         -10.0864   -7.4258   30.7348 C.ar    1  UNL1        0.0535
     35 C         -11.1946   -6.7288   31.2460 C.ar    1  UNL1        0.0353
     36 C         -11.3847   -5.3884   30.9002 C.ar    1  UNL1        0.1002
     37 N         -10.5109   -4.7684   30.0639 N.ar    1  UNL1       -0.2422
     38 C          -9.4409   -5.4228   29.5401 C.ar    1  UNL1        0.1002
     39 C          -9.2147   -6.7638   29.8590 C.ar    1  UNL1        0.0353
     40 C         -10.2943  -11.0251   33.4079 C.3     1  UNL1        0.0569
     41 C         -11.2549  -11.9588   32.7269 C.ar    1  UNL1       -0.0017
     42 C         -11.9950  -11.6857   31.5805 C.ar    1  UNL1        0.0681
     43 N         -12.8518  -12.6987   31.3181 N.ar    1  UNL1       -0.3523
     44 C         -12.6697  -13.6030   32.2959 C.ar    1  UNL1        0.0563
     45 C         -13.3628  -14.7988   32.4788 C.ar    1  UNL1        0.0170
     46 C         -13.0436  -15.5788   33.6047 C.ar    1  UNL1        0.0015
     47 C         -12.0567  -15.1473   34.5178 C.ar    1  UNL1        0.0001
     48 C         -11.3724  -13.9361   34.3079 C.ar    1  UNL1        0.0012
     49 C         -11.7049  -13.1868   33.1776 C.ar    1  UNL1        0.0131
     50 H         -13.5359  -12.7502   30.5309 H       1  UNL1        0.1660
@<TRIPOS>BOND
     1     5     6    1
     2     6     7   ar
     3     7    13    1
     4    13    14    1
     5    14    15    1
     6    15    16    1
     7    16    19    1
     8    19    20   ar
     9    20    21   ar
    10    21    22   ar
    11    22    25    1
    12    25    26    1
    13    25    27    1
    14    25    28    1
    15    22    23   ar
    16    23    24   ar
    17    16    17    1
    18    17    18    1
    19     7     8   ar
    20     8     9   ar
    21     9    10   ar
    22    10     1    1
    23     1     2    2
    24     1     3   am
    25     3    29    1
    26    29    40    1
    27    40    41    1
    28    41    42   ar
    29    42    43   ar
    30    43    44   ar
    31    44    45   ar
    32    45    46   ar
    33    46    47   ar
    34    47    48   ar
    35    48    49   ar
    36    29    30    1
    37    30    31    2
    38    30    32   am
    39    32    34    1
    40    34    35   ar
    41    35    36   ar
    42    36    37   ar
    43    37    38   ar
    44    38    39   ar
    45    10    11   ar
    46    11    12    1
    47    11     6   ar
    48    18    13    1
    49    49    41   ar
    50    39    34   ar
    51    24    19   ar
    52    49    44   ar
    53     3     4    1
    54    43    50    1
    55    32    33    1
@<TRIPOS>MOLECULE
*****
 50 55 0 0 0
SMALL
GASTEIGER

@<TRIPOS>ATOM
      1 C          -8.2500  -11.7173   30.0208 C.2     1  UNL1        0.2483
      2 O          -7.5208  -11.3567   30.9847 O.2     1  UNL1       -0.2701
      3 N          -9.5574  -11.1398   29.8605 N.am    1  UNL1       -0.2945
      4 H         -10.1011  -11.3555   28.9953 H       1  UNL1        0.1501
      5 C          -9.1259  -15.9536   27.4657 C.3     1  UNL1        0.0347
      6 C          -8.1952  -14.8285   27.8366 C.ar    1  UNL1        0.0191
      7 C          -6.9248  -14.7078   27.2315 C.ar    1  UNL1        0.0461
      8 C          -6.0779  -13.6567   27.6032 C.ar    1  UNL1        0.0145
      9 C          -6.4936  -12.7049   28.5324 C.ar    1  UNL1        0.0080
     10 C          -7.7726  -12.7788   29.1044 C.ar    1  UNL1        0.0805
     11 C          -8.6170  -13.8523   28.7593 C.ar    1  UNL1        0.1416
     12 F          -9.8687  -13.9245   29.2849 F       1  UNL1       -0.2043
     13 N          -6.4920  -15.6358   26.2226 N.pl3   1  UNL1       -0.3043
     14 C          -5.5062  -16.6745   26.5305 C.3     1  UNL1        0.1122
     15 C          -4.2388  -16.4391   25.7070 C.3     1  UNL1        0.1122
     16 N          -4.5874  -16.2087   24.2976 N.pl3   1  UNL1       -0.3041
     17 C          -5.5991  -15.1877   23.9902 C.3     1  UNL1        0.1122
     18 C          -6.8603  -15.4323   24.8197 C.3     1  UNL1        0.1122
     19 C          -3.7345  -16.7226   23.2573 C.ar    1  UNL1        0.0479
     20 C          -3.1046  -17.9699   23.3970 C.ar    1  UNL1        0.0145
     21 C          -2.2751  -18.4612   22.3850 C.ar    1  UNL1        0.0051
     22 C          -2.0728  -17.7215   21.2073 C.ar    1  UNL1        0.0715
     23 C          -2.6799  -16.4603   21.0826 C.ar    1  UNL1        0.0051
     24 C          -3.5100  -15.9701   22.0946 C.ar    1  UNL1        0.0145
     25 C          -1.1382  -18.2285   20.1379 C.3     1  UNL1        0.4186
     26 F          -0.7189  -17.1662   19.3590 F       1  UNL1       -0.1659
     27 F          -1.7753  -19.1555   19.3312 F       1  UNL1       -0.1659
     28 F          -0.0314  -18.8370   20.7044 F       1  UNL1       -0.1659
     29 C         -10.3065  -10.5906   30.9964 C.3     1  UNL1        0.1535
     30 C         -10.6972   -9.1640   30.7151 C.2     1  UNL1        0.2443
     31 O         -11.8348   -8.9119   30.2311 O.2     1  UNL1       -0.2730
     32 N          -9.8144   -8.0938   31.0885 N.am    1  UNL1       -0.2825
     33 H          -9.0497   -8.3080   31.7683 H       1  UNL1        0.1549
     34 C          -9.9850   -6.7274   30.6744 C.ar    1  UNL1        0.0535
     35 C         -11.1829   -6.0310   30.9098 C.ar    1  UNL1        0.0353
     36 C         -11.3113   -4.7121   30.4666 C.ar    1  UNL1        0.1002
     37 N         -10.2893   -4.1130   29.8001 N.ar    1  UNL1       -0.2422
     38 C          -9.1267   -4.7684   29.5424 C.ar    1  UNL1        0.1002
     39 C          -8.9574   -6.0884   29.9670 C.ar    1  UNL1        0.0353
     40 C         -11.5632  -11.4371   31.2653 C.3     1  UNL1        0.0569
     41 C         -11.4080  -12.2692   32.5071 C.ar    1  UNL1       -0.0017
     42 C         -10.3643  -12.1917   33.4244 C.ar    1  UNL1        0.0681
     43 N         -10.4744  -13.1718   34.3498 N.ar    1  UNL1       -0.3523
     44 C         -11.5699  -13.8763   34.0176 C.ar    1  UNL1        0.0563
     45 C         -12.0645  -15.0155   34.6511 C.ar    1  UNL1        0.0170
     46 C         -13.2064  -15.6286   34.1051 C.ar    1  UNL1        0.0015
     47 C         -13.8166  -15.1016   32.9458 C.ar    1  UNL1        0.0001
     48 C         -13.2962  -13.9500   32.3274 C.ar    1  UNL1        0.0012
     49 C         -12.1666  -13.3584   32.8963 C.ar    1  UNL1        0.0131
     50 H          -9.8212  -13.3582   35.1428 H       1  UNL1        0.1660
@<TRIPOS>BOND
     1     5     6    1
     2     6     7   ar
     3     7    13    1
     4    13    14    1
     5    14    15    1
     6    15    16    1
     7    16    19    1
     8    19    20   ar
     9    20    21   ar
    10    21    22   ar
    11    22    25    1
    12    25    26    1
    13    25    27    1
    14    25    28    1
    15    22    23   ar
    16    23    24   ar
    17    16    17    1
    18    17    18    1
    19     7     8   ar
    20     8     9   ar
    21     9    10   ar
    22    10     1    1
    23     1     2    2
    24     1     3   am
    25     3    29    1
    26    29    40    1
    27    40    41    1
    28    41    42   ar
    29    42    43   ar
    30    43    44   ar
    31    44    45   ar
    32    45    46   ar
    33    46    47   ar
    34    47    48   ar
    35    48    49   ar
    36    29    30    1
    37    30    31    2
    38    30    32   am
    39    32    34    1
    40    34    35   ar
    41    35    36   ar
    42    36    37   ar
    43    37    38   ar
    44    38    39   ar
    45    10    11   ar
    46    11    12    1
    47    11     6   ar
    48    18    13    1
    49    49    41   ar
    50    39    34   ar
    51    24    19   ar
    52    49    44   ar
    53     3     4    1
    54    43    50    1
    55    32    33    1
@<TRIPOS>MOLECULE
*****
 50 55 0 0 0
SMALL
GASTEIGER

@<TRIPOS>ATOM
      1 C          -8.9562  -11.9350   29.9205 C.2     1  UNL1        0.2483
      2 O          -8.5034  -11.7237   31.0786 O.2     1  UNL1       -0.2701
      3 N         -10.1096  -11.2084   29.4620 N.am    1  UNL1       -0.2945
      4 H         -10.4009  -11.3031   28.4636 H       1  UNL1        0.1501
      5 C          -9.2673  -16.3457   27.5347 C.3     1  UNL1        0.0347
      6 C          -8.4782  -15.1117   27.8873 C.ar    1  UNL1        0.0191
      7 C          -7.2034  -14.8799   27.3252 C.ar    1  UNL1        0.0461
      8 C          -6.4897  -13.7285   27.6789 C.ar    1  UNL1        0.0145
      9 C          -7.0433  -12.7888   28.5466 C.ar    1  UNL1        0.0080
     10 C          -8.3302  -12.9765   29.0731 C.ar    1  UNL1        0.0805
     11 C          -9.0402  -14.1487   28.7471 C.ar    1  UNL1        0.1416
     12 F         -10.2981  -14.3337   29.2282 F       1  UNL1       -0.2043
     13 N          -6.6321  -15.7974   26.3776 N.pl3   1  UNL1       -0.3043
     14 C          -5.4675  -16.6130   26.7299 C.3     1  UNL1        0.1122
     15 C          -4.2826  -16.2251   25.8437 C.3     1  UNL1        0.1122
     16 N          -4.6987  -16.1811   24.4344 N.pl3   1  UNL1       -0.3041
     17 C          -5.8855  -15.3875   24.0850 C.3     1  UNL1        0.1122
     18 C          -7.0625  -15.7827   24.9777 C.3     1  UNL1        0.1122
     19 C          -3.7902  -16.6202   23.4070 C.ar    1  UNL1        0.0479
     20 C          -3.0157  -17.7785   23.5816 C.ar    1  UNL1        0.0145
     21 C          -2.1331  -18.1971   22.5819 C.ar    1  UNL1        0.0051
     22 C          -2.0203  -17.4741   21.3821 C.ar    1  UNL1        0.0715
     23 C          -2.7739  -16.2988   21.2220 C.ar    1  UNL1        0.0051
     24 C          -3.6570  -15.8813   22.2217 C.ar    1  UNL1        0.0145
     25 C          -1.0315  -17.8975   20.3252 C.3     1  UNL1        0.4186
     26 F          -1.6968  -18.5905   19.3312 F       1  UNL1       -0.1659
     27 F          -0.0550  -18.7144   20.8685 F       1  UNL1       -0.1659
     28 F          -0.4100  -16.7937   19.7671 F       1  UNL1       -0.1659
     29 C         -11.1013  -10.6605   30.3945 C.3     1  UNL1        0.1535
     30 C         -11.7624  -11.7768   31.1586 C.2     1  UNL1        0.2443
     31 O         -13.0190  -11.8883   31.1390 O.2     1  UNL1       -0.2730
     32 N         -10.9569  -12.7633   31.8235 N.am    1  UNL1       -0.2825
     33 H          -9.9496  -12.8324   31.5530 H       1  UNL1        0.1549
     34 C         -11.4736  -13.7322   32.7520 C.ar    1  UNL1        0.0535
     35 C         -12.1581  -14.8790   32.3144 C.ar    1  UNL1        0.0353
     36 C         -12.6643  -15.7799   33.2551 C.ar    1  UNL1        0.1002
     37 N         -12.5072  -15.5400   34.5837 N.ar    1  UNL1       -0.2422
     38 C         -11.8658  -14.4301   35.0356 C.ar    1  UNL1        0.1002
     39 C         -11.3457  -13.5034   34.1290 C.ar    1  UNL1        0.0353
     40 C         -10.4292   -9.6800   31.3717 C.3     1  UNL1        0.0569
     41 C         -10.9842   -8.2913   31.2229 C.ar    1  UNL1       -0.0017
     42 C         -12.3116   -7.9124   31.3992 C.ar    1  UNL1        0.0681
     43 N         -12.4818   -6.6143   31.0603 N.ar    1  UNL1       -0.3523
     44 C         -11.2773   -6.1734   30.6582 C.ar    1  UNL1        0.0563
     45 C         -10.9632   -4.9064   30.1683 C.ar    1  UNL1        0.0170
     46 C          -9.6399   -4.6704   29.7550 C.ar    1  UNL1        0.0015
     47 C          -8.6725   -5.6963   29.8305 C.ar    1  UNL1        0.0001
     48 C          -9.0175   -6.9656   30.3299 C.ar    1  UNL1        0.0012
     49 C         -10.3368   -7.1684   30.7400 C.ar    1  UNL1        0.0131
     50 H         -13.3762   -6.0757   31.0799 H       1  UNL1        0.1660
@<TRIPOS>BOND
     1     5     6    1
     2     6     7   ar
     3     7    13    1
     4    13    14    1
     5    14    15    1
     6    15    16    1
     7    16    19    1
     8    19    20   ar
     9    20    21   ar
    10    21    22   ar
    11    22    25    1
    12    25    26    1
    13    25    27    1
    14    25    28    1
    15    22    23   ar
    16    23    24   ar
    17    16    17    1
    18    17    18    1
    19     7     8   ar
    20     8     9   ar
    21     9    10   ar
    22    10     1    1
    23     1     2    2
    24     1     3   am
    25     3    29    1
    26    29    40    1
    27    40    41    1
    28    41    42   ar
    29    42    43   ar
    30    43    44   ar
    31    44    45   ar
    32    45    46   ar
    33    46    47   ar
    34    47    48   ar
    35    48    49   ar
    36    29    30    1
    37    30    31    2
    38    30    32   am
    39    32    34    1
    40    34    35   ar
    41    35    36   ar
    42    36    37   ar
    43    37    38   ar
    44    38    39   ar
    45    10    11   ar
    46    11    12    1
    47    11     6   ar
    48    18    13    1
    49    49    41   ar
    50    39    34   ar
    51    24    19   ar
    52    49    44   ar
    53     3     4    1
    54    43    50    1
    55    32    33    1
@<TRIPOS>MOLECULE
*****
 50 55 0 0 0
SMALL
GASTEIGER

@<TRIPOS>ATOM
      1 C          -9.9211  -11.0554   30.9491 C.2     1  UNL1        0.2483
      2 O          -9.4994  -10.9937   32.1362 O.2     1  UNL1       -0.2701
      3 N         -11.0572  -10.2670   30.5538 N.am    1  UNL1       -0.2945
      4 H         -11.3213  -10.2343   29.5440 H       1  UNL1        0.1501
      5 C          -5.7977  -12.6621   28.5704 C.3     1  UNL1        0.0347
      6 C          -7.2721  -12.7958   28.8498 C.ar    1  UNL1        0.0191
      7 C          -8.0187  -13.8674   28.3122 C.ar    1  UNL1        0.0461
      8 C          -9.3894  -13.9603   28.5819 C.ar    1  UNL1        0.0145
      9 C         -10.0145  -13.0299   29.4102 C.ar    1  UNL1        0.0080
     10 C          -9.2779  -11.9892   29.9958 C.ar    1  UNL1        0.0805
     11 C          -7.9052  -11.8711   29.7020 C.ar    1  UNL1        0.1416
     12 F          -7.1719  -10.8838   30.2813 F       1  UNL1       -0.2043
     13 N          -7.3907  -14.8794   27.5073 N.pl3   1  UNL1       -0.3043
     14 C          -6.1566  -14.5953   26.7713 C.3     1  UNL1        0.1122
     15 C          -6.4179  -14.7093   25.2684 C.3     1  UNL1        0.1122
     16 N          -7.1301  -15.9608   24.9728 N.pl3   1  UNL1       -0.3041
     17 C          -8.3519  -16.2610   25.7328 C.3     1  UNL1        0.1122
     18 C          -8.0791  -16.1427   27.2329 C.3     1  UNL1        0.1122
     19 C          -6.8281  -16.6872   23.7666 C.ar    1  UNL1        0.0479
     20 C          -7.8391  -17.3628   23.0641 C.ar    1  UNL1        0.0145
     21 C          -7.5386  -18.0690   21.8959 C.ar    1  UNL1        0.0051
     22 C          -6.2241  -18.0994   21.3996 C.ar    1  UNL1        0.0715
     23 C          -5.2088  -17.4479   22.1205 C.ar    1  UNL1        0.0051
     24 C          -5.5103  -16.7411   23.2880 C.ar    1  UNL1        0.0145
     25 C          -5.8911  -18.9029   20.1678 C.3     1  UNL1        0.4186
     26 F          -5.4855  -20.1691   20.5462 F       1  UNL1       -0.1659
     27 F          -4.8730  -18.2988   19.4504 F       1  UNL1       -0.1659
     28 F          -6.9964  -19.0115   19.3415 F       1  UNL1       -0.1659
     29 C         -12.0712   -9.8301   31.5204 C.3     1  UNL1        0.1535
     30 C         -12.4239  -10.9643   32.4457 C.2     1  UNL1        0.2443
     31 O         -12.8855  -10.7139   33.5929 O.2     1  UNL1       -0.2730
     32 N         -12.3257  -12.3212   31.9837 N.am    1  UNL1       -0.2825
     33 H         -12.2606  -12.4811   30.9527 H       1  UNL1        0.1549
     34 C         -12.4243  -13.4725   32.8395 C.ar    1  UNL1        0.0535
     35 C         -13.3951  -14.4664   32.6274 C.ar    1  UNL1        0.0353
     36 C         -13.4687  -15.5548   33.5005 C.ar    1  UNL1        0.1002
     37 N         -12.6160  -15.6429   34.5554 N.ar    1  UNL1       -0.2422
     38 C         -11.6797  -14.6874   34.7954 C.ar    1  UNL1        0.1002
     39 C         -11.5730  -13.5822   33.9477 C.ar    1  UNL1        0.0353
     40 C         -11.5517   -8.6307   32.3324 C.3     1  UNL1        0.0569
     41 C         -11.3517   -7.4236   31.4598 C.ar    1  UNL1       -0.0017
     42 C         -12.3205   -6.8065   30.6743 C.ar    1  UNL1        0.0681
     43 N         -11.7666   -5.8294   29.9209 N.ar    1  UNL1       -0.3523
     44 C         -10.4545   -5.8327   30.2128 C.ar    1  UNL1        0.0563
     45 C          -9.4628   -5.0311   29.6492 C.ar    1  UNL1        0.0170
     46 C          -8.1357   -5.2344   30.0676 C.ar    1  UNL1        0.0015
     47 C          -7.8305   -6.2293   31.0221 C.ar    1  UNL1        0.0001
     48 C          -8.8518   -7.0236   31.5748 C.ar    1  UNL1        0.0012
     49 C         -10.1606   -6.7938   31.1463 C.ar    1  UNL1        0.0131
     50 H         -12.2576   -5.2184   29.2310 H       1  UNL1        0.1660
@<TRIPOS>BOND
     1     5     6    1
     2     6     7   ar
     3     7    13    1
     4    13    14    1
     5    14    15    1
     6    15    16    1
     7    16    19    1
     8    19    20   ar
     9    20    21   ar
    10    21    22   ar
    11    22    25    1
    12    25    26    1
    13    25    27    1
    14    25    28    1
    15    22    23   ar
    16    23    24   ar
    17    16    17    1
    18    17    18    1
    19     7     8   ar
    20     8     9   ar
    21     9    10   ar
    22    10     1    1
    23     1     2    2
    24     1     3   am
    25     3    29    1
    26    29    40    1
    27    40    41    1
    28    41    42   ar
    29    42    43   ar
    30    43    44   ar
    31    44    45   ar
    32    45    46   ar
    33    46    47   ar
    34    47    48   ar
    35    48    49   ar
    36    29    30    1
    37    30    31    2
    38    30    32   am
    39    32    34    1
    40    34    35   ar
    41    35    36   ar
    42    36    37   ar
    43    37    38   ar
    44    38    39   ar
    45    10    11   ar
    46    11    12    1
    47    11     6   ar
    48    18    13    1
    49    49    41   ar
    50    39    34   ar
    51    24    19   ar
    52    49    44   ar
    53     3     4    1
    54    43    50    1
    55    32    33    1
@<TRIPOS>MOLECULE
*****
 50 55 0 0 0
SMALL
GASTEIGER

@<TRIPOS>ATOM
      1 C          -8.5826  -11.8530   29.9827 C.2     1  UNL1        0.2483
      2 O          -8.0763  -11.6879   31.1261 O.2     1  UNL1       -0.2701
      3 N          -9.7190  -11.0661   29.5854 N.am    1  UNL1       -0.2945
      4 H         -10.0527  -11.1254   28.5976 H       1  UNL1        0.1501
      5 C          -9.2140  -16.1436   27.4461 C.3     1  UNL1        0.0347
      6 C          -8.3407  -14.9779   27.8309 C.ar    1  UNL1        0.0191
      7 C          -7.0602  -14.8100   27.2590 C.ar    1  UNL1        0.0461
      8 C          -6.2676  -13.7217   27.6432 C.ar    1  UNL1        0.0145
      9 C          -6.7472  -12.7799   28.5516 C.ar    1  UNL1        0.0080
     10 C          -8.0372  -12.9017   29.0897 C.ar    1  UNL1        0.0805
     11 C          -8.8272  -14.0121   28.7325 C.ar    1  UNL1        0.1416
     12 F         -10.0886  -14.1314   29.2249 F       1  UNL1       -0.2043
     13 N          -6.5624  -15.7279   26.2712 N.pl3   1  UNL1       -0.3043
     14 C          -5.4884  -16.6700   26.5946 C.3     1  UNL1        0.1122
     15 C          -4.2555  -16.3533   25.7465 C.3     1  UNL1        0.1122
     16 N          -4.6393  -16.1954   24.3362 N.pl3   1  UNL1       -0.3041
     17 C          -5.7374  -15.2732   24.0141 C.3     1  UNL1        0.1122
     18 C          -6.9634  -15.5983   24.8684 C.3     1  UNL1        0.1122
     19 C          -3.7584  -16.6664   23.2989 C.ar    1  UNL1        0.0479
     20 C          -2.9860  -17.8244   23.4848 C.ar    1  UNL1        0.0145
     21 C          -2.1303  -18.2741   22.4753 C.ar    1  UNL1        0.0051
     22 C          -2.0429  -17.5830   21.2547 C.ar    1  UNL1        0.0715
     23 C          -2.7938  -16.4078   21.0823 C.ar    1  UNL1        0.0051
     24 C          -3.6501  -15.9593   22.0919 C.ar    1  UNL1        0.0145
     25 C          -1.0823  -18.0395   20.1856 C.3     1  UNL1        0.4186
     26 F           0.0111  -18.6391   20.7822 F       1  UNL1       -0.1659
     27 F          -0.6496  -16.9659   19.4264 F       1  UNL1       -0.1659
     28 F          -1.6902  -18.9504   19.3389 F       1  UNL1       -0.1659
     29 C         -10.6483  -10.4961   30.5676 C.3     1  UNL1        0.1535
     30 C         -11.4284  -11.5957   31.2379 C.2     1  UNL1        0.2443
     31 O         -12.6875  -11.6055   31.1593 O.2     1  UNL1       -0.2730
     32 N         -10.7332  -12.6777   31.8782 N.am    1  UNL1       -0.2825
     33 H          -9.7227  -12.8122   31.6467 H       1  UNL1        0.1549
     34 C         -11.3656  -13.6510   32.7271 C.ar    1  UNL1        0.0535
     35 C         -12.1442  -14.6944   32.1977 C.ar    1  UNL1        0.0353
     36 C         -12.7600  -15.6019   33.0635 C.ar    1  UNL1        0.1002
     37 N         -12.6176  -15.4668   34.4085 N.ar    1  UNL1       -0.2422
     38 C         -11.8858  -14.4569   34.9487 C.ar    1  UNL1        0.1002
     39 C         -11.2546  -13.5272   34.1189 C.ar    1  UNL1        0.0353
     40 C          -9.8769   -9.6809   31.6206 C.3     1  UNL1        0.0569
     41 C          -9.2064   -8.4854   31.0046 C.ar    1  UNL1       -0.0017
     42 C          -7.8382   -8.3162   30.8150 C.ar    1  UNL1        0.0681
     43 N          -7.5748   -7.0722   30.3544 N.ar    1  UNL1       -0.3523
     44 C          -8.7626   -6.4492   30.2645 C.ar    1  UNL1        0.0563
     45 C          -8.9961   -5.1295   29.8804 C.ar    1  UNL1        0.0170
     46 C         -10.3224   -4.6624   29.9033 C.ar    1  UNL1        0.0015
     47 C         -11.3734   -5.5116   30.3136 C.ar    1  UNL1        0.0001
     48 C         -11.1086   -6.8396   30.6954 C.ar    1  UNL1        0.0012
     49 C          -9.7835   -7.2777   30.6553 C.ar    1  UNL1        0.0131
     50 H          -6.6346   -6.6709   30.1416 H       1  UNL1        0.1660
@<TRIPOS>BOND
     1     5     6    1
     2     6     7   ar
     3     7    13    1
     4    13    14    1
     5    14    15    1
     6    15    16    1
     7    16    19    1
     8    19    20   ar
     9    20    21   ar
    10    21    22   ar
    11    22    25    1
    12    25    26    1
    13    25    27    1
    14    25    28    1
    15    22    23   ar
    16    23    24   ar
    17    16    17    1
    18    17    18    1
    19     7     8   ar
    20     8     9   ar
    21     9    10   ar
    22    10     1    1
    23     1     2    2
    24     1     3   am
    25     3    29    1
    26    29    40    1
    27    40    41    1
    28    41    42   ar
    29    42    43   ar
    30    43    44   ar
    31    44    45   ar
    32    45    46   ar
    33    46    47   ar
    34    47    48   ar
    35    48    49   ar
    36    29    30    1
    37    30    31    2
    38    30    32   am
    39    32    34    1
    40    34    35   ar
    41    35    36   ar
    42    36    37   ar
    43    37    38   ar
    44    38    39   ar
    45    10    11   ar
    46    11    12    1
    47    11     6   ar
    48    18    13    1
    49    49    41   ar
    50    39    34   ar
    51    24    19   ar
    52    49    44   ar
    53     3     4    1
    54    43    50    1
    55    32    33    1
@<TRIPOS>MOLECULE
*****
 50 55 0 0 0
SMALL
GASTEIGER

@<TRIPOS>ATOM
      1 C          -8.6576  -11.8512   30.0109 C.2     1  UNL1        0.2483
      2 O          -8.1895  -11.7196   31.1746 O.2     1  UNL1       -0.2701
      3 N          -9.7608  -11.0308   29.5887 N.am    1  UNL1       -0.2945
      4 H         -10.0597  -11.0637   28.5885 H       1  UNL1        0.1501
      5 C          -9.2343  -16.1786   27.5242 C.3     1  UNL1        0.0347
      6 C          -8.3816  -14.9896   27.8829 C.ar    1  UNL1        0.0191
      7 C          -7.1158  -14.7977   27.2866 C.ar    1  UNL1        0.0461
      8 C          -6.3419  -13.6878   27.6467 C.ar    1  UNL1        0.0145
      9 C          -6.8270  -12.7489   28.5553 C.ar    1  UNL1        0.0080
     10 C          -8.1041  -12.8954   29.1175 C.ar    1  UNL1        0.0805
     11 C          -8.8742  -14.0269   28.7845 C.ar    1  UNL1        0.1416
     12 F         -10.1236  -14.1707   29.3006 F       1  UNL1       -0.2043
     13 N          -6.6144  -15.7130   26.2981 N.pl3   1  UNL1       -0.3043
     14 C          -5.5208  -16.6348   26.6139 C.3     1  UNL1        0.1122
     15 C          -4.3038  -16.3024   25.7489 C.3     1  UNL1        0.1122
     16 N          -4.7073  -16.1596   24.3425 N.pl3   1  UNL1       -0.3041
     17 C          -5.8248  -15.2581   24.0285 C.3     1  UNL1        0.1122
     18 C          -7.0346  -15.5987   24.8997 C.3     1  UNL1        0.1122
     19 C          -3.8312  -16.6219   23.2972 C.ar    1  UNL1        0.0479
     20 C          -3.7016  -15.9012   22.0990 C.ar    1  UNL1        0.0145
     21 C          -2.8523  -16.3574   21.0869 C.ar    1  UNL1        0.0051
     22 C          -2.1044  -17.5345   21.2608 C.ar    1  UNL1        0.0715
     23 C          -2.2585  -18.2700   22.4482 C.ar    1  UNL1        0.0051
     24 C          -3.1072  -17.8127   23.4602 C.ar    1  UNL1        0.0145
     25 C          -1.2272  -18.0532   20.1493 C.3     1  UNL1        0.4186
     26 F          -0.1499  -18.7252   20.6958 F       1  UNL1       -0.1659
     27 F          -0.7592  -17.0102   19.3686 F       1  UNL1       -0.1659
     28 F          -1.9332  -18.9205   19.3335 F       1  UNL1       -0.1659
     29 C         -10.7120  -10.4579   30.5480 C.3     1  UNL1        0.1535
     30 C         -11.4652  -11.5584   31.2469 C.2     1  UNL1        0.2443
     31 O         -12.7260  -11.5777   31.2031 O.2     1  UNL1       -0.2730
     32 N         -10.7447  -12.6310   31.8751 N.am    1  UNL1       -0.2825
     33 H          -9.7401  -12.7598   31.6167 H       1  UNL1        0.1549
     34 C         -11.3463  -13.6028   32.7476 C.ar    1  UNL1        0.0535
     35 C         -12.0926  -14.6821   32.2441 C.ar    1  UNL1        0.0353
     36 C         -12.6796  -15.5874   33.1320 C.ar    1  UNL1        0.1002
     37 N         -12.5409  -15.4159   34.4732 N.ar    1  UNL1       -0.2422
     38 C         -11.8404  -14.3713   34.9884 C.ar    1  UNL1        0.1002
     39 C         -11.2386  -13.4425   34.1359 C.ar    1  UNL1        0.0353
     40 C          -9.9706   -9.5900   31.5800 C.3     1  UNL1        0.0569
     41 C          -9.8943   -8.1562   31.1364 C.ar    1  UNL1       -0.0017
     42 C         -10.9376   -7.4015   30.6086 C.ar    1  UNL1        0.0681
     43 N         -10.4873   -6.1943   30.1976 N.ar    1  UNL1       -0.3523
     44 C          -9.1666   -6.1846   30.4479 C.ar    1  UNL1        0.0563
     45 C          -8.2594   -5.1681   30.1520 C.ar    1  UNL1        0.0170
     46 C          -6.9041   -5.3863   30.4578 C.ar    1  UNL1        0.0015
     47 C          -6.4883   -6.6050   31.0373 C.ar    1  UNL1        0.0001
     48 C          -7.4260   -7.6134   31.3258 C.ar    1  UNL1        0.0012
     49 C          -8.7653   -7.3656   31.0185 C.ar    1  UNL1        0.0131
     50 H         -11.0498   -5.4374   29.7493 H       1  UNL1        0.1660
@<TRIPOS>BOND
     1     5     6    1
     2     6     7   ar
     3     7    13    1
     4    13    14    1
     5    14    15    1
     6    15    16    1
     7    16    19    1
     8    19    20   ar
     9    20    21   ar
    10    21    22   ar
    11    22    25    1
    12    25    26    1
    13    25    27    1
    14    25    28    1
    15    22    23   ar
    16    23    24   ar
    17    16    17    1
    18    17    18    1
    19     7     8   ar
    20     8     9   ar
    21     9    10   ar
    22    10     1    1
    23     1     2    2
    24     1     3   am
    25     3    29    1
    26    29    40    1
    27    40    41    1
    28    41    42   ar
    29    42    43   ar
    30    43    44   ar
    31    44    45   ar
    32    45    46   ar
    33    46    47   ar
    34    47    48   ar
    35    48    49   ar
    36    29    30    1
    37    30    31    2
    38    30    32   am
    39    32    34    1
    40    34    35   ar
    41    35    36   ar
    42    36    37   ar
    43    37    38   ar
    44    38    39   ar
    45    10    11   ar
    46    11    12    1
    47    11     6   ar
    48    18    13    1
    49    49    41   ar
    50    39    34   ar
    51    24    19   ar
    52    49    44   ar
    53     3     4    1
    54    43    50    1
    55    32    33    1
@<TRIPOS>MOLECULE
*****
 50 55 0 0 0
SMALL
GASTEIGER

@<TRIPOS>ATOM
      1 C          -5.3923  -16.7423   22.0249 C.2     1  UNL1        0.2483
      2 O          -5.7303  -16.1288   20.9760 O.2     1  UNL1       -0.2701
      3 N          -4.5872  -17.9302   21.9284 N.am    1  UNL1       -0.2945
      4 H          -4.2143  -18.3589   22.8047 H       1  UNL1        0.1501
      5 C          -9.2284  -15.6997   25.0973 C.3     1  UNL1        0.0347
      6 C          -7.7440  -15.7764   24.8516 C.ar    1  UNL1        0.0191
      7 C          -6.8219  -15.5169   25.8895 C.ar    1  UNL1        0.0461
      8 C          -5.4482  -15.5870   25.6286 C.ar    1  UNL1        0.0145
      9 C          -4.9829  -15.9520   24.3666 C.ar    1  UNL1        0.0080
     10 C          -5.8845  -16.2649   23.3381 C.ar    1  UNL1        0.0805
     11 C          -7.2678  -16.1644   23.5847 C.ar    1  UNL1        0.1416
     12 F          -8.1547  -16.4886   22.6068 F       1  UNL1       -0.2043
     13 N          -7.2697  -15.2012   27.2184 N.pl3   1  UNL1       -0.3043
     14 C          -8.6182  -15.5617   27.6623 C.3     1  UNL1        0.1122
     15 C          -9.4150  -14.2917   27.9657 C.3     1  UNL1        0.1122
     16 N          -8.6231  -13.3888   28.8136 N.pl3   1  UNL1       -0.3041
     17 C          -7.2586  -13.0512   28.3841 C.3     1  UNL1        0.1122
     18 C          -6.4724  -14.3277   28.0825 C.3     1  UNL1        0.1122
     19 C          -9.2761  -12.6122   29.8355 C.ar    1  UNL1        0.0479
     20 C         -10.5197  -13.0090   30.3532 C.ar    1  UNL1        0.0145
     21 C         -11.1498  -12.2487   31.3423 C.ar    1  UNL1        0.0051
     22 C         -10.5405  -11.0857   31.8437 C.ar    1  UNL1        0.0715
     23 C          -9.3105  -10.6741   31.3028 C.ar    1  UNL1        0.0051
     24 C          -8.6805  -11.4355   30.3144 C.ar    1  UNL1        0.0145
     25 C         -11.2436  -10.2385   32.8742 C.3     1  UNL1        0.4186
     26 F         -10.4661  -10.1710   34.0151 F       1  UNL1       -0.1659
     27 F         -12.4739  -10.7839   33.1984 F       1  UNL1       -0.1659
     28 F         -11.4521   -8.9571   32.3938 F       1  UNL1       -0.1659
     29 C          -4.5861  -18.7699   20.7250 C.3     1  UNL1        0.1535
     30 C          -3.1866  -19.2357   20.4226 C.2     1  UNL1        0.2443
     31 O          -3.0016  -20.1395   19.5620 O.2     1  UNL1       -0.2730
     32 N          -2.0663  -18.5832   21.0417 N.am    1  UNL1       -0.2825
     33 H          -2.2288  -17.6488   21.4812 H       1  UNL1        0.1549
     34 C          -0.7182  -19.0815   20.9962 C.ar    1  UNL1        0.0535
     35 C          -0.3990  -20.3813   21.4249 C.ar    1  UNL1        0.0353
     36 C           0.9295  -20.8128   21.3854 C.ar    1  UNL1        0.1002
     37 N           1.9068  -19.9753   20.9487 N.ar    1  UNL1       -0.2422
     38 C           1.6297  -18.7071   20.5456 C.ar    1  UNL1        0.1002
     39 C           0.3150  -18.2355   20.5702 C.ar    1  UNL1        0.0353
     40 C          -5.5136  -19.9822   20.9204 C.3     1  UNL1        0.0569
     41 C          -6.9383  -19.6420   20.5845 C.ar    1  UNL1       -0.0017
     42 C          -7.4136  -19.2201   19.3464 C.ar    1  UNL1        0.0681
     43 N          -8.7192  -18.8782   19.4326 N.ar    1  UNL1       -0.3523
     44 C          -9.0696  -19.0668   20.7165 C.ar    1  UNL1        0.0563
     45 C         -10.3082  -18.8044   21.3003 C.ar    1  UNL1        0.0170
     46 C         -10.4455  -19.0299   22.6816 C.ar    1  UNL1        0.0015
     47 C          -9.3522  -19.4984   23.4427 C.ar    1  UNL1        0.0001
     48 C          -8.1136  -19.7555   22.8269 C.ar    1  UNL1        0.0012
     49 C          -8.0091  -19.5299   21.4529 C.ar    1  UNL1        0.0131
     50 H          -9.3216  -18.5134   18.6616 H       1  UNL1        0.1660
@<TRIPOS>BOND
     1     5     6    1
     2     6     7   ar
     3     7    13    1
     4    13    14    1
     5    14    15    1
     6    15    16    1
     7    16    19    1
     8    19    20   ar
     9    20    21   ar
    10    21    22   ar
    11    22    25    1
    12    25    26    1
    13    25    27    1
    14    25    28    1
    15    22    23   ar
    16    23    24   ar
    17    16    17    1
    18    17    18    1
    19     7     8   ar
    20     8     9   ar
    21     9    10   ar
    22    10     1    1
    23     1     2    2
    24     1     3   am
    25     3    29    1
    26    29    40    1
    27    40    41    1
    28    41    42   ar
    29    42    43   ar
    30    43    44   ar
    31    44    45   ar
    32    45    46   ar
    33    46    47   ar
    34    47    48   ar
    35    48    49   ar
    36    29    30    1
    37    30    31    2
    38    30    32   am
    39    32    34    1
    40    34    35   ar
    41    35    36   ar
    42    36    37   ar
    43    37    38   ar
    44    38    39   ar
    45    10    11   ar
    46    11    12    1
    47    11     6   ar
    48    18    13    1
    49    49    41   ar
    50    39    34   ar
    51    24    19   ar
    52    49    44   ar
    53     3     4    1
    54    43    50    1
    55    32    33    1
