@<TRIPOS>MOLECULE
*****
 20 22 0 0 0
SMALL
GASTEIGER

@<TRIPOS>ATOM
      1 O          46.1794   17.4852  -26.1211 O.2     1  UNL1       -0.2681
      2 C          46.6986   16.3411  -26.2171 C.2     1  UNL1        0.2700
      3 N          45.8466   15.1866  -26.2047 N.am    1  UNL1       -0.2645
      4 H          44.9518   15.2515  -25.6683 H       1  UNL1        0.1566
      5 C          46.0730   14.0213  -27.0130 C.ar    1  UNL1        0.1344
      6 C          46.4348   12.8097  -26.4079 C.ar    1  UNL1        0.0345
      7 C          46.6339   11.6741  -27.1960 C.ar    1  UNL1        0.0044
      8 C          46.4629   11.7504  -28.5834 C.ar    1  UNL1        0.0178
      9 C          46.6564   10.6306  -29.4060 C.ar    1  UNL1        0.0015
     10 C          46.4756   10.7408  -30.7888 C.ar    1  UNL1        0.0001
     11 C          46.1018   11.9643  -31.3549 C.ar    1  UNL1        0.0015
     12 C          45.9064   13.0851  -30.5416 C.ar    1  UNL1        0.0191
     13 C          46.0854   12.9845  -29.1574 C.ar    1  UNL1        0.0827
     14 N          45.8976   14.0720  -28.3636 N.ar    1  UNL1       -0.2305
     15 C          48.1671   16.2201  -26.2770 C.ar    1  UNL1        0.1556
     16 C          48.9841   15.7623  -25.2592 C.ar    1  UNL1        0.0454
     17 C          50.2526   15.7981  -25.7970 C.ar    1  UNL1        0.0925
     18 N          50.1719   16.2451  -27.0625 N.ar    1  UNL1       -0.2742
     19 N          48.9099   16.4989  -27.3664 N.ar    1  UNL1       -0.1680
     20 H          50.9718   16.3737  -27.7207 H       1  UNL1        0.1890
@<TRIPOS>BOND
     1     1     2    2
     2     2     3   am
     3     3     5    1
     4     5     6   ar
     5     6     7   ar
     6     7     8   ar
     7     8     9   ar
     8     9    10   ar
     9    10    11   ar
    10    11    12   ar
    11    12    13   ar
    12    13    14   ar
    13     2    15    1
    14    15    16   ar
    15    16    17   ar
    16    17    18   ar
    17    18    19   ar
    18    14     5   ar
    19    19    15   ar
    20    13     8   ar
    21     3     4    1
    22    18    20    1
@<TRIPOS>MOLECULE
*****
 20 22 0 0 0
SMALL
GASTEIGER

@<TRIPOS>ATOM
      1 O          46.4029   10.8617  -27.8198 O.2     1  UNL1       -0.2681
      2 C          46.2735   12.0785  -28.1204 C.2     1  UNL1        0.2700
      3 N          46.1592   13.0473  -27.0681 N.am    1  UNL1       -0.2645
      4 H          45.7220   12.7373  -26.1707 H       1  UNL1        0.1566
      5 C          46.7537   14.3536  -27.1203 C.ar    1  UNL1        0.1344
      6 C          45.9670   15.4677  -27.4441 C.ar    1  UNL1        0.0345
      7 C          46.5449   16.7387  -27.4737 C.ar    1  UNL1        0.0044
      8 C          47.9032   16.8935  -27.1720 C.ar    1  UNL1        0.0178
      9 C          48.5173   18.1547  -27.1938 C.ar    1  UNL1        0.0015
     10 C          49.8765   18.2744  -26.8854 C.ar    1  UNL1        0.0001
     11 C          50.6262   17.1405  -26.5546 C.ar    1  UNL1        0.0015
     12 C          50.0213   15.8799  -26.5301 C.ar    1  UNL1        0.0191
     13 C          48.6622   15.7503  -26.8375 C.ar    1  UNL1        0.0827
     14 N          48.0708   14.5265  -26.8159 N.ar    1  UNL1       -0.2305
     15 C          46.1818   12.4629  -29.5412 C.ar    1  UNL1        0.1556
     16 C          46.3699   11.6203  -30.6217 C.ar    1  UNL1        0.0454
     17 C          46.1462   12.4202  -31.7216 C.ar    1  UNL1        0.0925
     18 N          45.8365   13.6583  -31.2986 N.ar    1  UNL1       -0.2742
     19 N          45.8494   13.6943  -29.9765 N.ar    1  UNL1       -0.1680
     20 H          45.6123   14.4768  -31.9062 H       1  UNL1        0.1890
@<TRIPOS>BOND
     1     1     2    2
     2     2     3   am
     3     3     5    1
     4     5     6   ar
     5     6     7   ar
     6     7     8   ar
     7     8     9   ar
     8     9    10   ar
     9    10    11   ar
    10    11    12   ar
    11    12    13   ar
    12    13    14   ar
    13     2    15    1
    14    15    16   ar
    15    16    17   ar
    16    17    18   ar
    17    18    19   ar
    18    14     5   ar
    19    19    15   ar
    20    13     8   ar
    21     3     4    1
    22    18    20    1
@<TRIPOS>MOLECULE
*****
 20 22 0 0 0
SMALL
GASTEIGER

@<TRIPOS>ATOM
      1 O          49.3052    6.8099  -27.9898 O.2     1  UNL1       -0.2681
      2 C          49.2880    7.9454  -28.5355 C.2     1  UNL1        0.2700
      3 N          48.2113    8.2740  -29.4253 N.am    1  UNL1       -0.2645
      4 H          47.7680    7.4913  -29.9580 H       1  UNL1        0.1566
      5 C          47.6081    9.5752  -29.4991 C.ar    1  UNL1        0.1344
      6 C          47.0847   10.0357  -30.7152 C.ar    1  UNL1        0.0345
      7 C          46.4807   11.2934  -30.7775 C.ar    1  UNL1        0.0044
      8 C          46.3941   12.0824  -29.6243 C.ar    1  UNL1        0.0178
      9 C          45.7961   13.3512  -29.6504 C.ar    1  UNL1        0.0015
     10 C          45.7244   14.1131  -28.4795 C.ar    1  UNL1        0.0001
     11 C          46.2469   13.6142  -27.2815 C.ar    1  UNL1        0.0015
     12 C          46.8441   12.3501  -27.2470 C.ar    1  UNL1        0.0191
     13 C          46.9206   11.5808  -28.4135 C.ar    1  UNL1        0.0827
     14 N          47.5015   10.3520  -28.3844 N.ar    1  UNL1       -0.2305
     15 C          50.4044    8.8778  -28.2922 C.ar    1  UNL1        0.1556
     16 C          50.5439    9.7044  -27.1922 C.ar    1  UNL1        0.0454
     17 C          51.7461   10.3463  -27.3974 C.ar    1  UNL1        0.0925
     18 N          52.2778    9.9071  -28.5516 N.ar    1  UNL1       -0.2742
     19 N          51.4746    9.0110  -29.1004 N.ar    1  UNL1       -0.1680
     20 H          53.1869   10.2117  -28.9643 H       1  UNL1        0.1890
@<TRIPOS>BOND
     1     1     2    2
     2     2     3   am
     3     3     5    1
     4     5     6   ar
     5     6     7   ar
     6     7     8   ar
     7     8     9   ar
     8     9    10   ar
     9    10    11   ar
    10    11    12   ar
    11    12    13   ar
    12    13    14   ar
    13     2    15    1
    14    15    16   ar
    15    16    17   ar
    16    17    18   ar
    17    18    19   ar
    18    14     5   ar
    19    19    15   ar
    20    13     8   ar
    21     3     4    1
    22    18    20    1
@<TRIPOS>MOLECULE
*****
 20 22 0 0 0
SMALL
GASTEIGER

@<TRIPOS>ATOM
      1 O          45.6676   11.6263  -25.9093 O.2     1  UNL1       -0.2681
      2 C          46.1166   12.6914  -26.4110 C.2     1  UNL1        0.2700
      3 N          46.4915   13.7676  -25.5391 N.am    1  UNL1       -0.2645
      4 H          45.9792   13.8564  -24.6323 H       1  UNL1        0.1566
      5 C          47.6271   14.6171  -25.7655 C.ar    1  UNL1        0.1344
      6 C          48.9238   14.0973  -25.6494 C.ar    1  UNL1        0.0345
      7 C          50.0248   14.9219  -25.8905 C.ar    1  UNL1        0.0044
      8 C          49.8271   16.2591  -26.2545 C.ar    1  UNL1        0.0178
      9 C          50.9095   17.1166  -26.5022 C.ar    1  UNL1        0.0015
     10 C          50.6768   18.4472  -26.8658 C.ar    1  UNL1        0.0001
     11 C          49.3677   18.9264  -26.9838 C.ar    1  UNL1        0.0015
     12 C          48.2833   18.0779  -26.7391 C.ar    1  UNL1        0.0191
     13 C          48.5064   16.7453  -26.3746 C.ar    1  UNL1        0.0827
     14 N          47.4550   15.9176  -26.1347 N.ar    1  UNL1       -0.2305
     15 C          46.1854   12.8227  -27.8782 C.ar    1  UNL1        0.1556
     16 C          46.3370   11.7832  -28.7779 C.ar    1  UNL1        0.0454
     17 C          46.3083   12.3937  -30.0133 C.ar    1  UNL1        0.0925
     18 N          46.1401   13.7160  -29.8369 N.ar    1  UNL1       -0.2742
     19 N          46.0584   13.9870  -28.5450 N.ar    1  UNL1       -0.1680
     20 H          46.0764   14.4332  -30.5927 H       1  UNL1        0.1890
@<TRIPOS>BOND
     1     1     2    2
     2     2     3   am
     3     3     5    1
     4     5     6   ar
     5     6     7   ar
     6     7     8   ar
     7     8     9   ar
     8     9    10   ar
     9    10    11   ar
    10    11    12   ar
    11    12    13   ar
    12    13    14   ar
    13     2    15    1
    14    15    16   ar
    15    16    17   ar
    16    17    18   ar
    17    18    19   ar
    18    14     5   ar
    19    19    15   ar
    20    13     8   ar
    21     3     4    1
    22    18    20    1
@<TRIPOS>MOLECULE
*****
 20 22 0 0 0
SMALL
GASTEIGER

@<TRIPOS>ATOM
      1 O          46.6490   16.2888  -24.1251 O.2     1  UNL1       -0.2681
      2 C          47.0844   15.5014  -25.0072 C.2     1  UNL1        0.2700
      3 N          46.2711   14.3906  -25.4116 N.am    1  UNL1       -0.2645
      4 H          45.6188   13.9853  -24.7025 H       1  UNL1        0.1566
      5 C          46.1845   13.9180  -26.7650 C.ar    1  UNL1        0.1344
      6 C          45.8162   14.7989  -27.7913 C.ar    1  UNL1        0.0345
      7 C          45.7532   14.3400  -29.1088 C.ar    1  UNL1        0.0044
      8 C          46.0661   13.0063  -29.3975 C.ar    1  UNL1        0.0178
      9 C          46.0116   12.5105  -30.7087 C.ar    1  UNL1        0.0015
     10 C          46.3322   11.1728  -30.9629 C.ar    1  UNL1        0.0001
     11 C          46.7078   10.3270  -29.9137 C.ar    1  UNL1        0.0015
     12 C          46.7651   10.8137  -28.6039 C.ar    1  UNL1        0.0191
     13 C          46.4457   12.1504  -28.3400 C.ar    1  UNL1        0.0827
     14 N          46.4991   12.6271  -27.0680 N.ar    1  UNL1       -0.2305
     15 C          48.4390   15.7091  -25.5519 C.ar    1  UNL1        0.1556
     16 C          48.7817   16.6009  -26.5520 C.ar    1  UNL1        0.0454
     17 C          50.1461   16.4581  -26.6844 C.ar    1  UNL1        0.0925
     18 N          50.5710   15.5379  -25.8009 N.ar    1  UNL1       -0.2742
     19 N          49.5440   15.0808  -25.1040 N.ar    1  UNL1       -0.1680
     20 H          51.5575   15.2237  -25.6678 H       1  UNL1        0.1890
@<TRIPOS>BOND
     1     1     2    2
     2     2     3   am
     3     3     5    1
     4     5     6   ar
     5     6     7   ar
     6     7     8   ar
     7     8     9   ar
     8     9    10   ar
     9    10    11   ar
    10    11    12   ar
    11    12    13   ar
    12    13    14   ar
    13     2    15    1
    14    15    16   ar
    15    16    17   ar
    16    17    18   ar
    17    18    19   ar
    18    14     5   ar
    19    19    15   ar
    20    13     8   ar
    21     3     4    1
    22    18    20    1
@<TRIPOS>MOLECULE
*****
 20 22 0 0 0
SMALL
GASTEIGER

@<TRIPOS>ATOM
      1 O          47.7314   20.0934  -25.7499 O.2     1  UNL1       -0.2681
      2 C          47.9368   18.8577  -25.6141 C.2     1  UNL1        0.2700
      3 N          46.8399   18.0049  -25.2554 N.am    1  UNL1       -0.2645
      4 H          46.0744   18.4191  -24.6765 H       1  UNL1        0.1566
      5 C          46.6569   16.6802  -25.7790 C.ar    1  UNL1        0.1344
      6 C          47.1208   16.3656  -27.0639 C.ar    1  UNL1        0.0345
      7 C          46.9589   15.0707  -27.5610 C.ar    1  UNL1        0.0044
      8 C          46.3423   14.0932  -26.7709 C.ar    1  UNL1        0.0178
      9 C          46.1612   12.7830  -27.2385 C.ar    1  UNL1        0.0015
     10 C          45.5428   11.8299  -26.4224 C.ar    1  UNL1        0.0001
     11 C          45.1042   12.1785  -25.1405 C.ar    1  UNL1        0.0015
     12 C          45.2816   13.4823  -24.6667 C.ar    1  UNL1        0.0191
     13 C          45.8989   14.4426  -25.4762 C.ar    1  UNL1        0.0827
     14 N          46.0721   15.7113  -25.0197 N.ar    1  UNL1       -0.2305
     15 C          49.3072   18.3348  -25.7670 C.ar    1  UNL1        0.1556
     16 C          50.1684   18.6141  -26.8125 C.ar    1  UNL1        0.0454
     17 C          51.3243   17.9344  -26.4940 C.ar    1  UNL1        0.0925
     18 N          51.1434   17.3022  -25.3212 N.ar    1  UNL1       -0.2742
     19 N          49.9245   17.5431  -24.8678 N.ar    1  UNL1       -0.1680
     20 H          51.8478   16.7116  -24.8267 H       1  UNL1        0.1890
@<TRIPOS>BOND
     1     1     2    2
     2     2     3   am
     3     3     5    1
     4     5     6   ar
     5     6     7   ar
     6     7     8   ar
     7     8     9   ar
     8     9    10   ar
     9    10    11   ar
    10    11    12   ar
    11    12    13   ar
    12    13    14   ar
    13     2    15    1
    14    15    16   ar
    15    16    17   ar
    16    17    18   ar
    17    18    19   ar
    18    14     5   ar
    19    19    15   ar
    20    13     8   ar
    21     3     4    1
    22    18    20    1
@<TRIPOS>MOLECULE
*****
 20 22 0 0 0
SMALL
GASTEIGER

@<TRIPOS>ATOM
      1 O          53.3777   10.8763  -24.1476 O.2     1  UNL1       -0.2681
      2 C          52.3576   10.5200  -24.7956 C.2     1  UNL1        0.2700
      3 N          52.2338   10.9125  -26.1702 N.am    1  UNL1       -0.2645
      4 H          52.6816   11.8120  -26.4586 H       1  UNL1        0.1566
      5 C          51.6795   10.0695  -27.1923 C.ar    1  UNL1        0.1344
      6 C          50.3091    9.7745  -27.1886 C.ar    1  UNL1        0.0345
      7 C          49.7708    8.9710  -28.1961 C.ar    1  UNL1        0.0044
      8 C          50.6006    8.4723  -29.2073 C.ar    1  UNL1        0.0178
      9 C          50.0947    7.6607  -30.2337 C.ar    1  UNL1        0.0015
     10 C          50.9512    7.1804  -31.2300 C.ar    1  UNL1        0.0001
     11 C          52.3113    7.5069  -31.2069 C.ar    1  UNL1        0.0015
     12 C          52.8233    8.3158  -30.1875 C.ar    1  UNL1        0.0191
     13 C          51.9742    8.8007  -29.1864 C.ar    1  UNL1        0.0827
     14 N          52.4683    9.5863  -28.1931 N.ar    1  UNL1       -0.2305
     15 C          51.2949    9.7645  -24.1066 C.ar    1  UNL1        0.1556
     16 C          50.2145   10.3123  -23.4391 C.ar    1  UNL1        0.0454
     17 C          49.4942    9.2216  -23.0020 C.ar    1  UNL1        0.0925
     18 N          50.1211    8.1019  -23.4033 N.ar    1  UNL1       -0.2742
     19 N          51.2123    8.4196  -24.0798 N.ar    1  UNL1       -0.1680
     20 H          49.8064    7.1232  -23.2222 H       1  UNL1        0.1890
@<TRIPOS>BOND
     1     1     2    2
     2     2     3   am
     3     3     5    1
     4     5     6   ar
     5     6     7   ar
     6     7     8   ar
     7     8     9   ar
     8     9    10   ar
     9    10    11   ar
    10    11    12   ar
    11    12    13   ar
    12    13    14   ar
    13     2    15    1
    14    15    16   ar
    15    16    17   ar
    16    17    18   ar
    17    18    19   ar
    18    14     5   ar
    19    19    15   ar
    20    13     8   ar
    21     3     4    1
    22    18    20    1
@<TRIPOS>MOLECULE
*****
 20 22 0 0 0
SMALL
GASTEIGER

@<TRIPOS>ATOM
      1 O          47.4744   20.5241  -25.6927 O.2     1  UNL1       -0.2681
      2 C          47.8459   19.3420  -25.4638 C.2     1  UNL1        0.2700
      3 N          46.9941   18.4812  -24.6943 N.am    1  UNL1       -0.2645
      4 H          46.3783   18.9261  -23.9764 H       1  UNL1        0.1566
      5 C          46.8218   17.0815  -24.9660 C.ar    1  UNL1        0.1344
      6 C          46.7586   16.1658  -23.9065 C.ar    1  UNL1        0.0345
      7 C          46.5704   14.8082  -24.1746 C.ar    1  UNL1        0.0044
      8 C          46.4378   14.3714  -25.4980 C.ar    1  UNL1        0.0178
      9 C          46.2497   13.0153  -25.8044 C.ar    1  UNL1        0.0015
     10 C          46.1190   12.6127  -27.1377 C.ar    1  UNL1        0.0001
     11 C          46.1748   13.5579  -28.1675 C.ar    1  UNL1        0.0015
     12 C          46.3615   14.9117  -27.8704 C.ar    1  UNL1        0.0191
     13 C          46.4936   15.3238  -26.5396 C.ar    1  UNL1        0.0827
     14 N          46.6764   16.6386  -26.2467 N.ar    1  UNL1       -0.2305
     15 C          49.1694   18.8987  -25.9400 C.ar    1  UNL1        0.1556
     16 C          50.1263   18.2482  -25.1823 C.ar    1  UNL1        0.0454
     17 C          51.1587   18.0128  -26.0646 C.ar    1  UNL1        0.0925
     18 N          50.8128   18.4945  -27.2713 N.ar    1  UNL1       -0.2742
     19 N          49.6047   19.0292  -27.2087 N.ar    1  UNL1       -0.1680
     20 H          51.3941   18.4563  -28.1375 H       1  UNL1        0.1890
@<TRIPOS>BOND
     1     1     2    2
     2     2     3   am
     3     3     5    1
     4     5     6   ar
     5     6     7   ar
     6     7     8   ar
     7     8     9   ar
     8     9    10   ar
     9    10    11   ar
    10    11    12   ar
    11    12    13   ar
    12    13    14   ar
    13     2    15    1
    14    15    16   ar
    15    16    17   ar
    16    17    18   ar
    17    18    19   ar
    18    14     5   ar
    19    19    15   ar
    20    13     8   ar
    21     3     4    1
    22    18    20    1
@<TRIPOS>MOLECULE
*****
 20 22 0 0 0
SMALL
GASTEIGER

@<TRIPOS>ATOM
      1 O          48.4744   12.6429  -23.2708 O.2     1  UNL1       -0.2681
      2 C          48.3769   12.2282  -24.4566 C.2     1  UNL1        0.2700
      3 N          47.0722   12.0263  -25.0185 N.am    1  UNL1       -0.2645
      4 H          46.2996   11.7635  -24.3653 H       1  UNL1        0.1566
      5 C          46.7384   12.3228  -26.3835 C.ar    1  UNL1        0.1344
      6 C          46.3123   13.6110  -26.7355 C.ar    1  UNL1        0.0345
      7 C          46.0085   13.9004  -28.0675 C.ar    1  UNL1        0.0044
      8 C          46.1390   12.9054  -29.0437 C.ar    1  UNL1        0.0178
      9 C          45.8408   13.1599  -30.3907 C.ar    1  UNL1        0.0015
     10 C          45.9837   12.1436  -31.3412 C.ar    1  UNL1        0.0001
     11 C          46.4238   10.8735  -30.9534 C.ar    1  UNL1        0.0015
     12 C          46.7238   10.6119  -29.6127 C.ar    1  UNL1        0.0191
     13 C          46.5834   11.6224  -28.6548 C.ar    1  UNL1        0.0827
     14 N          46.8728   11.3718  -27.3504 N.ar    1  UNL1       -0.2305
     15 C          49.6034   11.9050  -25.2090 C.ar    1  UNL1        0.1556
     16 C          50.7090   12.7245  -25.3458 C.ar    1  UNL1        0.0454
     17 C          51.5959   11.9798  -26.0932 C.ar    1  UNL1        0.0925
     18 N          51.0352   10.7887  -26.3667 N.ar    1  UNL1       -0.2742
     19 N          49.8279   10.7301  -25.8298 N.ar    1  UNL1       -0.1680
     20 H          51.4732   10.0148  -26.9133 H       1  UNL1        0.1890
@<TRIPOS>BOND
     1     1     2    2
     2     2     3   am
     3     3     5    1
     4     5     6   ar
     5     6     7   ar
     6     7     8   ar
     7     8     9   ar
     8     9    10   ar
     9    10    11   ar
    10    11    12   ar
    11    12    13   ar
    12    13    14   ar
    13     2    15    1
    14    15    16   ar
    15    16    17   ar
    16    17    18   ar
    17    18    19   ar
    18    14     5   ar
    19    19    15   ar
    20    13     8   ar
    21     3     4    1
    22    18    20    1
