@<TRIPOS>MOLECULE
*****
 51 56 0 0 0
SMALL
GASTEIGER

@<TRIPOS>ATOM
      1 N         -62.8950  -40.8040  -19.9605 N.am    1  UNL1       -0.2945
      2 C         -62.0169  -41.8665  -20.3585 C.2     1  UNL1        0.2483
      3 O         -61.4589  -42.5837  -19.4837 O.2     1  UNL1       -0.2701
      4 H         -63.0966  -40.0412  -20.6449 H       1  UNL1        0.1501
      5 C         -61.7439  -42.1163  -21.7877 C.ar    1  UNL1        0.0808
      6 C         -60.6106  -42.8533  -22.1654 C.ar    1  UNL1        0.0080
      7 C         -60.3355  -43.0865  -23.5154 C.ar    1  UNL1        0.0148
      8 C         -61.1972  -42.5986  -24.5108 C.ar    1  UNL1        0.0502
      9 C         -62.3407  -41.8785  -24.1330 C.ar    1  UNL1        0.0443
     10 C         -62.6182  -41.6428  -22.7833 C.ar    1  UNL1        0.1457
     11 F         -63.7647  -40.9967  -22.4518 F       1  UNL1       -0.2040
     12 N         -60.9174  -42.8323  -25.9038 N.pl3   1  UNL1       -0.3040
     13 C         -60.0609  -41.9085  -26.6563 C.3     1  UNL1        0.1123
     14 C         -60.5995  -41.7376  -28.0772 C.3     1  UNL1        0.1136
     15 N         -60.8772  -43.0505  -28.6755 N.pl3   1  UNL1       -0.2897
     16 C         -61.7362  -43.9710  -27.9210 C.3     1  UNL1        0.1136
     17 C         -61.1994  -44.1436  -26.4996 C.3     1  UNL1        0.1123
     18 C         -60.6715  -43.2654  -30.0842 C.ar    1  UNL1        0.1318
     19 C         -59.6712  -44.1359  -30.5409 C.ar    1  UNL1        0.0343
     20 C         -59.5031  -44.3328  -31.9123 C.ar    1  UNL1        0.0083
     21 C         -60.3465  -43.6853  -32.8280 C.ar    1  UNL1        0.0906
     22 C         -61.3268  -42.8128  -32.3298 C.ar    1  UNL1        0.1041
     23 N         -61.4696  -42.6347  -30.9899 N.ar    1  UNL1       -0.2292
     24 C         -60.1438  -43.8506  -34.3126 C.3     1  UNL1        0.4200
     25 F         -59.5042  -45.0469  -34.5877 F       1  UNL1       -0.1658
     26 F         -59.3703  -42.8070  -34.7853 F       1  UNL1       -0.1658
     27 F         -61.3593  -43.8472  -34.9748 F       1  UNL1       -0.1658
     28 C         -63.5119  -40.7665  -18.6316 C.3     1  UNL1        0.1535
     29 C         -64.1554  -39.4253  -18.4016 C.2     1  UNL1        0.2443
     30 O         -64.9686  -39.2837  -17.4475 O.2     1  UNL1       -0.2730
     31 N         -63.8511  -38.3219  -19.2701 N.am    1  UNL1       -0.2825
     32 H         -63.4119  -38.5329  -20.1946 H       1  UNL1        0.1549
     33 C         -64.2154  -36.9584  -18.9958 C.ar    1  UNL1        0.0535
     34 C         -65.4500  -36.4712  -19.4460 C.ar    1  UNL1        0.0353
     35 C         -65.7988  -35.1406  -19.2025 C.ar    1  UNL1        0.1002
     36 N         -64.9372  -34.3187  -18.5473 N.ar    1  UNL1       -0.2422
     37 C         -63.7246  -34.7564  -18.1164 C.ar    1  UNL1        0.1002
     38 C         -63.3370  -36.0803  -18.3381 C.ar    1  UNL1        0.0353
     39 C         -64.5627  -41.8820  -18.4705 C.3     1  UNL1        0.0565
     40 C         -65.2807  -43.4682  -20.4385 C.ar    1  UNL1        0.0296
     41 N         -65.9844  -43.3571  -21.5915 N.ar    1  UNL1       -0.3567
     42 C         -66.3822  -42.0769  -21.6669 C.ar    1  UNL1        0.0561
     43 C         -67.1373  -41.4886  -22.6807 C.ar    1  UNL1        0.0169
     44 C         -67.4360  -40.1188  -22.5684 C.ar    1  UNL1        0.0015
     45 C         -66.9738  -39.3753  -21.4607 C.ar    1  UNL1        0.0001
     46 C         -66.2107  -39.9950  -20.4547 C.ar    1  UNL1        0.0012
     47 C         -65.9363  -41.3575  -20.5886 C.ar    1  UNL1        0.0127
     48 C         -65.2202  -42.2266  -19.7843 C.ar    1  UNL1       -0.0072
     49 H         -66.1693  -44.1090  -22.2924 H       1  UNL1        0.1656
     50 C         -65.3405  -45.4146  -18.8553 C.3     1  UNL1        0.0066
     51 C         -64.6096  -44.7515  -20.0199 C.3     1  UNL1        0.0432
@<TRIPOS>BOND
     1    50    51    1
     2    51    40    1
     3    40    41   ar
     4    41    42   ar
     5    42    43   ar
     6    43    44   ar
     7    44    45   ar
     8    45    46   ar
     9    46    47   ar
    10    47    48   ar
    11    48    39    1
    12    39    28    1
    13    28     1    1
    14     1     2   am
    15     2     3    2
    16     2     5    1
    17     5     6   ar
    18     6     7   ar
    19     7     8   ar
    20     8    12    1
    21    12    13    1
    22    13    14    1
    23    14    15    1
    24    15    18    1
    25    18    19   ar
    26    19    20   ar
    27    20    21   ar
    28    21    24    1
    29    24    25    1
    30    24    26    1
    31    24    27    1
    32    21    22   ar
    33    22    23   ar
    34    15    16    1
    35    16    17    1
    36     8     9   ar
    37     9    10   ar
    38    10    11    1
    39    28    29    1
    40    29    30    2
    41    29    31   am
    42    31    33    1
    43    33    34   ar
    44    34    35   ar
    45    35    36   ar
    46    36    37   ar
    47    37    38   ar
    48    48    40   ar
    49    10     5   ar
    50    38    33   ar
    51    47    42   ar
    52    17    12    1
    53    23    18   ar
    54    41    49    1
    55     1     4    1
    56    31    32    1
@<TRIPOS>MOLECULE
*****
 51 56 0 0 0
SMALL
GASTEIGER

@<TRIPOS>ATOM
      1 N         -61.6362  -41.4032  -22.3770 N.am    1  UNL1       -0.2945
      2 C         -60.8086  -41.8440  -23.4629 C.2     1  UNL1        0.2483
      3 O         -59.5712  -41.6001  -23.4512 O.2     1  UNL1       -0.2701
      4 H         -62.6661  -41.3288  -22.5336 H       1  UNL1        0.1501
      5 C         -61.3980  -42.5660  -24.6079 C.ar    1  UNL1        0.0808
      6 C         -60.6850  -43.6089  -25.2197 C.ar    1  UNL1        0.0080
      7 C         -61.2274  -44.2921  -26.3113 C.ar    1  UNL1        0.0148
      8 C         -62.4990  -43.9532  -26.8011 C.ar    1  UNL1        0.0502
      9 C         -63.2204  -42.9238  -26.1777 C.ar    1  UNL1        0.0443
     10 C         -62.6800  -42.2379  -25.0859 C.ar    1  UNL1        0.1457
     11 F         -63.4307  -41.2904  -24.4688 F       1  UNL1       -0.2040
     12 N         -63.0619  -44.6509  -27.9280 N.pl3   1  UNL1       -0.3040
     13 C         -63.9292  -43.9485  -28.8808 C.3     1  UNL1        0.1123
     14 C         -65.0636  -44.8698  -29.3310 C.3     1  UNL1        0.1136
     15 N         -64.5260  -46.1767  -29.7334 N.pl3   1  UNL1       -0.2897
     16 C         -63.6609  -46.8773  -28.7769 C.3     1  UNL1        0.1136
     17 C         -62.5254  -45.9579  -28.3253 C.3     1  UNL1        0.1123
     18 C         -65.1353  -46.9127  -30.8105 C.ar    1  UNL1        0.1318
     19 C         -65.2442  -46.3544  -32.0924 C.ar    1  UNL1        0.0343
     20 C         -65.8295  -47.0966  -33.1194 C.ar    1  UNL1        0.0083
     21 C         -66.2818  -48.4027  -32.8783 C.ar    1  UNL1        0.0906
     22 C         -66.1654  -48.9193  -31.5782 C.ar    1  UNL1        0.1041
     23 N         -65.5945  -48.1765  -30.5934 N.ar    1  UNL1       -0.2292
     24 C         -66.9604  -49.1964  -33.9655 C.3     1  UNL1        0.4200
     25 F         -68.0577  -48.5110  -34.4575 F       1  UNL1       -0.1658
     26 F         -67.3801  -50.4083  -33.4499 F       1  UNL1       -0.1658
     27 F         -66.0894  -49.4302  -35.0156 F       1  UNL1       -0.1658
     28 C         -61.0764  -41.0622  -21.0662 C.3     1  UNL1        0.1535
     29 C         -61.9637  -40.0634  -20.3727 C.2     1  UNL1        0.2443
     30 O         -62.4143  -40.3274  -19.2242 O.2     1  UNL1       -0.2730
     31 N         -62.3002  -38.8263  -21.0212 N.am    1  UNL1       -0.2825
     32 H         -62.1550  -38.7595  -22.0541 H       1  UNL1        0.1549
     33 C         -62.9287  -37.7159  -20.3587 C.ar    1  UNL1        0.0535
     34 C         -64.1052  -37.9265  -19.6265 C.ar    1  UNL1        0.0353
     35 C         -64.7326  -36.8470  -19.0002 C.ar    1  UNL1        0.1002
     36 N         -64.2136  -35.5961  -19.1152 N.ar    1  UNL1       -0.2422
     37 C         -63.0856  -35.3571  -19.8351 C.ar    1  UNL1        0.1002
     38 C         -62.4260  -36.4088  -20.4761 C.ar    1  UNL1        0.0353
     39 C         -60.9142  -42.3148  -20.1836 C.3     1  UNL1        0.0565
     40 C         -62.7946  -43.9975  -20.9164 C.ar    1  UNL1        0.0296
     41 N         -62.8701  -45.1441  -21.6351 N.ar    1  UNL1       -0.3567
     42 C         -61.6196  -45.4158  -22.0415 C.ar    1  UNL1        0.0561
     43 C         -61.2021  -46.4998  -22.8127 C.ar    1  UNL1        0.0169
     44 C         -59.8330  -46.6015  -23.1182 C.ar    1  UNL1        0.0015
     45 C         -58.9217  -45.6315  -22.6468 C.ar    1  UNL1        0.0001
     46 C         -59.3714  -44.5504  -21.8675 C.ar    1  UNL1        0.0012
     47 C         -60.7368  -44.4708  -21.5866 C.ar    1  UNL1        0.0127
     48 C         -61.4649  -43.5487  -20.8553 C.ar    1  UNL1       -0.0072
     49 H         -63.7241  -45.7148  -21.8241 H       1  UNL1        0.1656
     50 C         -64.9064  -44.4611  -19.6421 C.3     1  UNL1        0.0066
     51 C         -63.9928  -43.3901  -20.2325 C.3     1  UNL1        0.0432
@<TRIPOS>BOND
     1    50    51    1
     2    51    40    1
     3    40    41   ar
     4    41    42   ar
     5    42    43   ar
     6    43    44   ar
     7    44    45   ar
     8    45    46   ar
     9    46    47   ar
    10    47    48   ar
    11    48    39    1
    12    39    28    1
    13    28     1    1
    14     1     2   am
    15     2     3    2
    16     2     5    1
    17     5     6   ar
    18     6     7   ar
    19     7     8   ar
    20     8    12    1
    21    12    13    1
    22    13    14    1
    23    14    15    1
    24    15    18    1
    25    18    19   ar
    26    19    20   ar
    27    20    21   ar
    28    21    24    1
    29    24    25    1
    30    24    26    1
    31    24    27    1
    32    21    22   ar
    33    22    23   ar
    34    15    16    1
    35    16    17    1
    36     8     9   ar
    37     9    10   ar
    38    10    11    1
    39    28    29    1
    40    29    30    2
    41    29    31   am
    42    31    33    1
    43    33    34   ar
    44    34    35   ar
    45    35    36   ar
    46    36    37   ar
    47    37    38   ar
    48    48    40   ar
    49    10     5   ar
    50    38    33   ar
    51    47    42   ar
    52    17    12    1
    53    23    18   ar
    54    41    49    1
    55     1     4    1
    56    31    32    1
@<TRIPOS>MOLECULE
*****
 51 56 0 0 0
SMALL
GASTEIGER

@<TRIPOS>ATOM
      1 N         -63.0322  -47.1746  -25.7659 N.am    1  UNL1       -0.2945
      2 C         -61.9487  -46.5059  -25.1047 C.2     1  UNL1        0.2483
      3 O         -60.7990  -47.0245  -25.0972 O.2     1  UNL1       -0.2701
      4 H         -64.0103  -46.9130  -25.5093 H       1  UNL1        0.1501
      5 C         -62.1727  -45.2208  -24.4131 C.ar    1  UNL1        0.0808
      6 C         -62.1122  -45.1602  -23.0121 C.ar    1  UNL1        0.0080
      7 C         -62.3337  -43.9521  -22.3457 C.ar    1  UNL1        0.0148
      8 C         -62.6056  -42.7804  -23.0701 C.ar    1  UNL1        0.0502
      9 C         -62.6469  -42.8365  -24.4715 C.ar    1  UNL1        0.0443
     10 C         -62.4266  -44.0438  -25.1411 C.ar    1  UNL1        0.1457
     11 F         -62.4126  -44.0489  -26.4982 F       1  UNL1       -0.2040
     12 N         -62.8383  -41.5332  -22.3892 N.pl3   1  UNL1       -0.3040
     13 C         -61.8081  -40.9574  -21.5172 C.3     1  UNL1        0.1123
     14 C         -62.4605  -40.3132  -20.2935 C.3     1  UNL1        0.1136
     15 N         -63.5673  -39.4409  -20.7093 N.pl3   1  UNL1       -0.2897
     16 C         -64.5972  -40.0208  -21.5795 C.3     1  UNL1        0.1136
     17 C         -63.9470  -40.6656  -22.8042 C.3     1  UNL1        0.1123
     18 C         -63.8512  -38.2308  -19.9826 C.ar    1  UNL1        0.1318
     19 C         -64.9887  -38.1304  -19.1684 C.ar    1  UNL1        0.0343
     20 C         -65.2315  -36.9485  -18.4669 C.ar    1  UNL1        0.0083
     21 C         -64.3298  -35.8769  -18.5541 C.ar    1  UNL1        0.0906
     22 C         -63.2104  -36.0138  -19.3899 C.ar    1  UNL1        0.1041
     23 N         -62.9965  -37.1736  -20.0656 N.ar    1  UNL1       -0.2292
     24 C         -64.6057  -34.5776  -17.8413 C.3     1  UNL1        0.4200
     25 F         -65.7451  -33.9759  -18.3469 F       1  UNL1       -0.1658
     26 F         -63.5311  -33.7258  -18.0156 F       1  UNL1       -0.1658
     27 F         -64.7948  -34.7939  -16.4872 F       1  UNL1       -0.1658
     28 C         -62.8010  -48.2022  -26.7849 C.3     1  UNL1        0.1535
     29 C         -63.2472  -49.5448  -26.2710 C.2     1  UNL1        0.2443
     30 O         -63.6542  -50.4166  -27.0871 O.2     1  UNL1       -0.2730
     31 N         -63.2178  -49.8228  -24.8616 N.am    1  UNL1       -0.2825
     32 H         -63.1522  -49.0131  -24.2040 H       1  UNL1        0.1549
     33 C         -63.3869  -51.1340  -24.2969 C.ar    1  UNL1        0.0535
     34 C         -64.5650  -51.8484  -24.5539 C.ar    1  UNL1        0.0353
     35 C         -64.7443  -53.1132  -23.9886 C.ar    1  UNL1        0.1002
     36 N         -63.7878  -53.6403  -23.1795 N.ar    1  UNL1       -0.2422
     37 C         -62.6438  -52.9633  -22.8953 C.ar    1  UNL1        0.1002
     38 C         -62.4241  -51.6961  -23.4411 C.ar    1  UNL1        0.0353
     39 C         -63.5463  -47.8719  -28.0924 C.3     1  UNL1        0.0565
     40 C         -63.8138  -45.5267  -29.2471 C.ar    1  UNL1        0.0296
     41 N         -62.9937  -44.5365  -29.6759 N.ar    1  UNL1       -0.3567
     42 C         -61.7430  -44.9377  -29.3977 C.ar    1  UNL1        0.0561
     43 C         -60.5602  -44.2461  -29.6562 C.ar    1  UNL1        0.0169
     44 C         -59.3473  -44.8574  -29.2913 C.ar    1  UNL1        0.0015
     45 C         -59.3436  -46.1340  -28.6880 C.ar    1  UNL1        0.0001
     46 C         -60.5526  -46.8096  -28.4426 C.ar    1  UNL1        0.0012
     47 C         -61.7415  -46.1753  -28.8082 C.ar    1  UNL1        0.0127
     48 C         -63.0606  -46.5806  -28.7036 C.ar    1  UNL1       -0.0072
     49 H         -63.2723  -43.6456  -30.1444 H       1  UNL1        0.1656
     50 C         -65.7780  -44.0899  -29.8602 C.3     1  UNL1        0.0066
     51 C         -65.3086  -45.4792  -29.4364 C.3     1  UNL1        0.0432
@<TRIPOS>BOND
     1    50    51    1
     2    51    40    1
     3    40    41   ar
     4    41    42   ar
     5    42    43   ar
     6    43    44   ar
     7    44    45   ar
     8    45    46   ar
     9    46    47   ar
    10    47    48   ar
    11    48    39    1
    12    39    28    1
    13    28     1    1
    14     1     2   am
    15     2     3    2
    16     2     5    1
    17     5     6   ar
    18     6     7   ar
    19     7     8   ar
    20     8    12    1
    21    12    13    1
    22    13    14    1
    23    14    15    1
    24    15    18    1
    25    18    19   ar
    26    19    20   ar
    27    20    21   ar
    28    21    24    1
    29    24    25    1
    30    24    26    1
    31    24    27    1
    32    21    22   ar
    33    22    23   ar
    34    15    16    1
    35    16    17    1
    36     8     9   ar
    37     9    10   ar
    38    10    11    1
    39    28    29    1
    40    29    30    2
    41    29    31   am
    42    31    33    1
    43    33    34   ar
    44    34    35   ar
    45    35    36   ar
    46    36    37   ar
    47    37    38   ar
    48    48    40   ar
    49    10     5   ar
    50    38    33   ar
    51    47    42   ar
    52    17    12    1
    53    23    18   ar
    54    41    49    1
    55     1     4    1
    56    31    32    1
@<TRIPOS>MOLECULE
*****
 51 56 0 0 0
SMALL
GASTEIGER

@<TRIPOS>ATOM
      1 N         -62.4503  -40.5271  -21.7979 N.am    1  UNL1       -0.2945
      2 C         -61.6080  -41.5145  -22.4094 C.2     1  UNL1        0.2483
      3 O         -60.4752  -41.7689  -21.9162 O.2     1  UNL1       -0.2701
      4 H         -63.2194  -40.1070  -22.3663 H       1  UNL1        0.1501
      5 C         -62.0485  -42.2240  -23.6268 C.ar    1  UNL1        0.0808
      6 C         -61.3586  -43.3677  -24.0586 C.ar    1  UNL1        0.0080
      7 C         -61.7590  -44.0412  -25.2156 C.ar    1  UNL1        0.0148
      8 C         -62.8655  -43.5904  -25.9532 C.ar    1  UNL1        0.0502
      9 C         -63.5674  -42.4586  -25.5112 C.ar    1  UNL1        0.0443
     10 C         -63.1687  -41.7822  -24.3546 C.ar    1  UNL1        0.1457
     11 F         -63.9074  -40.7290  -23.9223 F       1  UNL1       -0.2040
     12 N         -63.2809  -44.2778  -27.1484 N.pl3   1  UNL1       -0.3040
     13 C         -63.7648  -43.5240  -28.3107 C.3     1  UNL1        0.1123
     14 C         -64.9206  -44.2734  -28.9745 C.3     1  UNL1        0.1136
     15 N         -64.5603  -45.6833  -29.1779 N.pl3   1  UNL1       -0.2897
     16 C         -64.0790  -46.4347  -28.0126 C.3     1  UNL1        0.1136
     17 C         -62.9229  -45.6872  -27.3472 C.3     1  UNL1        0.1123
     18 C         -65.0384  -46.3959  -30.3340 C.ar    1  UNL1        0.1318
     19 C         -65.2762  -45.7277  -31.5439 C.ar    1  UNL1        0.0343
     20 C         -65.7286  -46.4474  -32.6508 C.ar    1  UNL1        0.0083
     21 C         -65.9186  -47.8348  -32.5623 C.ar    1  UNL1        0.0906
     22 C         -65.6811  -48.4630  -31.3296 C.ar    1  UNL1        0.1041
     23 N         -65.2437  -47.7406  -30.2645 N.ar    1  UNL1       -0.2292
     24 C         -66.4539  -48.6158  -33.7353 C.3     1  UNL1        0.4200
     25 F         -66.7336  -49.9203  -33.3663 F       1  UNL1       -0.1658
     26 F         -65.5095  -48.6257  -34.7446 F       1  UNL1       -0.1658
     27 F         -67.6192  -48.0417  -34.2134 F       1  UNL1       -0.1658
     28 C         -62.2612  -40.1016  -20.4083 C.3     1  UNL1        0.1535
     29 C         -62.6480  -38.6548  -20.2568 C.2     1  UNL1        0.2443
     30 O         -62.2517  -37.8148  -21.1107 O.2     1  UNL1       -0.2730
     31 N         -63.4529  -38.2372  -19.1423 N.am    1  UNL1       -0.2825
     32 H         -63.5242  -38.8802  -18.3215 H       1  UNL1        0.1549
     33 C         -64.0732  -36.9444  -19.0379 C.ar    1  UNL1        0.0535
     34 C         -63.4124  -35.9166  -18.3513 C.ar    1  UNL1        0.0353
     35 C         -64.0210  -34.6654  -18.2269 C.ar    1  UNL1        0.1002
     36 N         -65.2552  -34.4518  -18.7545 N.ar    1  UNL1       -0.2422
     37 C         -65.9295  -35.4346  -19.4081 C.ar    1  UNL1        0.1002
     38 C         -65.3565  -36.7002  -19.5562 C.ar    1  UNL1        0.0353
     39 C         -63.0915  -40.9661  -19.4401 C.3     1  UNL1        0.0565
     40 C         -64.4383  -43.0420  -20.3240 C.ar    1  UNL1        0.0296
     41 N         -65.5934  -43.2564  -20.9999 N.ar    1  UNL1       -0.3567
     42 C         -66.1215  -42.0446  -21.2350 C.ar    1  UNL1        0.0561
     43 C         -67.3123  -41.7605  -21.9025 C.ar    1  UNL1        0.0169
     44 C         -67.6779  -40.4105  -22.0503 C.ar    1  UNL1        0.0015
     45 C         -66.8519  -39.3863  -21.5381 C.ar    1  UNL1        0.0001
     46 C         -65.6542  -39.7029  -20.8722 C.ar    1  UNL1        0.0012
     47 C         -65.3205  -41.0516  -20.7334 C.ar    1  UNL1        0.0127
     48 C         -64.2276  -41.6646  -20.1462 C.ar    1  UNL1       -0.0072
     49 H         -65.9896  -44.1764  -21.2955 H       1  UNL1        0.1656
     50 C         -62.9913  -44.9218  -21.1432 C.3     1  UNL1        0.0066
     51 C         -63.5131  -44.1635  -19.9255 C.3     1  UNL1        0.0432
@<TRIPOS>BOND
     1    50    51    1
     2    51    40    1
     3    40    41   ar
     4    41    42   ar
     5    42    43   ar
     6    43    44   ar
     7    44    45   ar
     8    45    46   ar
     9    46    47   ar
    10    47    48   ar
    11    48    39    1
    12    39    28    1
    13    28     1    1
    14     1     2   am
    15     2     3    2
    16     2     5    1
    17     5     6   ar
    18     6     7   ar
    19     7     8   ar
    20     8    12    1
    21    12    13    1
    22    13    14    1
    23    14    15    1
    24    15    18    1
    25    18    19   ar
    26    19    20   ar
    27    20    21   ar
    28    21    24    1
    29    24    25    1
    30    24    26    1
    31    24    27    1
    32    21    22   ar
    33    22    23   ar
    34    15    16    1
    35    16    17    1
    36     8     9   ar
    37     9    10   ar
    38    10    11    1
    39    28    29    1
    40    29    30    2
    41    29    31   am
    42    31    33    1
    43    33    34   ar
    44    34    35   ar
    45    35    36   ar
    46    36    37   ar
    47    37    38   ar
    48    48    40   ar
    49    10     5   ar
    50    38    33   ar
    51    47    42   ar
    52    17    12    1
    53    23    18   ar
    54    41    49    1
    55     1     4    1
    56    31    32    1
@<TRIPOS>MOLECULE
*****
 51 56 0 0 0
SMALL
GASTEIGER

@<TRIPOS>ATOM
      1 N         -63.0460  -47.0794  -25.8952 N.am    1  UNL1       -0.2945
      2 C         -61.9529  -46.3917  -25.2703 C.2     1  UNL1        0.2483
      3 O         -60.7927  -46.8849  -25.3106 O.2     1  UNL1       -0.2701
      4 H         -64.0190  -46.8413  -25.5995 H       1  UNL1        0.1501
      5 C         -62.1782  -45.1167  -24.5607 C.ar    1  UNL1        0.0808
      6 C         -62.0995  -45.0720  -23.1600 C.ar    1  UNL1        0.0080
      7 C         -62.3220  -43.8737  -22.4765 C.ar    1  UNL1        0.0148
      8 C         -62.6133  -42.6960  -23.1833 C.ar    1  UNL1        0.0502
      9 C         -62.6729  -42.7360  -24.5846 C.ar    1  UNL1        0.0443
     10 C         -62.4516  -43.9335  -25.2713 C.ar    1  UNL1        0.1457
     11 F         -62.4557  -43.9226  -26.6284 F       1  UNL1       -0.2040
     12 N         -62.8473  -41.4588  -22.4847 N.pl3   1  UNL1       -0.3040
     13 C         -61.8060  -40.8788  -21.6287 C.3     1  UNL1        0.1123
     14 C         -62.4404  -40.2555  -20.3847 C.3     1  UNL1        0.1136
     15 N         -63.5667  -39.3932  -20.7680 N.pl3   1  UNL1       -0.2897
     16 C         -64.6074  -39.9775  -21.6222 C.3     1  UNL1        0.1136
     17 C         -63.9754  -40.6014  -22.8671 C.3     1  UNL1        0.1123
     18 C         -63.8504  -38.1944  -20.0228 C.ar    1  UNL1        0.1318
     19 C         -64.9937  -38.1022  -19.2159 C.ar    1  UNL1        0.0343
     20 C         -65.2361  -36.9312  -18.4962 C.ar    1  UNL1        0.0083
     21 C         -64.3286  -35.8629  -18.5579 C.ar    1  UNL1        0.0906
     22 C         -63.2032  -35.9911  -19.3872 C.ar    1  UNL1        0.1041
     23 N         -62.9897  -37.1403  -20.0811 N.ar    1  UNL1       -0.2292
     24 C         -64.6036  -34.5746  -17.8251 C.3     1  UNL1        0.4200
     25 F         -65.7442  -33.9658  -18.3194 F       1  UNL1       -0.1658
     26 F         -63.5297  -33.7197  -17.9886 F       1  UNL1       -0.1658
     27 F         -64.7900  -34.8114  -16.4741 F       1  UNL1       -0.1658
     28 C         -62.8315  -48.0946  -26.9302 C.3     1  UNL1        0.1535
     29 C         -63.2456  -49.4475  -26.4165 C.2     1  UNL1        0.2443
     30 O         -63.5886  -50.3431  -27.2363 O.2     1  UNL1       -0.2730
     31 N         -63.2584  -49.7086  -25.0037 N.am    1  UNL1       -0.2825
     32 H         -63.2481  -48.8899  -24.3543 H       1  UNL1        0.1549
     33 C         -63.3988  -51.0191  -24.4294 C.ar    1  UNL1        0.0535
     34 C         -64.5588  -51.7630  -24.6853 C.ar    1  UNL1        0.0353
     35 C         -64.7104  -53.0273  -24.1108 C.ar    1  UNL1        0.1002
     36 N         -63.7451  -53.5254  -23.2939 N.ar    1  UNL1       -0.2422
     37 C         -62.6186  -52.8194  -23.0106 C.ar    1  UNL1        0.1002
     38 C         -62.4266  -51.5516  -23.5655 C.ar    1  UNL1        0.0353
     39 C         -63.6187  -47.7618  -28.2124 C.3     1  UNL1        0.0565
     40 C         -61.9369  -45.9174  -29.0335 C.ar    1  UNL1        0.0296
     41 N         -62.0163  -44.6737  -29.5664 N.ar    1  UNL1       -0.3567
     42 C         -63.3249  -44.3922  -29.6699 C.ar    1  UNL1        0.0561
     43 C         -63.8973  -43.2213  -30.1657 C.ar    1  UNL1        0.0169
     44 C         -65.3005  -43.1274  -30.1745 C.ar    1  UNL1        0.0015
     45 C         -66.0910  -44.1913  -29.6880 C.ar    1  UNL1        0.0001
     46 C         -65.4855  -45.3593  -29.1903 C.ar    1  UNL1        0.0012
     47 C         -64.0909  -45.4278  -29.2012 C.ar    1  UNL1        0.0127
     48 C         -63.2237  -46.4208  -28.7804 C.ar    1  UNL1       -0.0072
     49 H         -61.2220  -44.0489  -29.8301 H       1  UNL1        0.1656
     50 C         -59.4767  -45.5643  -28.6858 C.3     1  UNL1        0.0066
     51 C         -60.6210  -46.5743  -28.7029 C.3     1  UNL1        0.0432
@<TRIPOS>BOND
     1    50    51    1
     2    51    40    1
     3    40    41   ar
     4    41    42   ar
     5    42    43   ar
     6    43    44   ar
     7    44    45   ar
     8    45    46   ar
     9    46    47   ar
    10    47    48   ar
    11    48    39    1
    12    39    28    1
    13    28     1    1
    14     1     2   am
    15     2     3    2
    16     2     5    1
    17     5     6   ar
    18     6     7   ar
    19     7     8   ar
    20     8    12    1
    21    12    13    1
    22    13    14    1
    23    14    15    1
    24    15    18    1
    25    18    19   ar
    26    19    20   ar
    27    20    21   ar
    28    21    24    1
    29    24    25    1
    30    24    26    1
    31    24    27    1
    32    21    22   ar
    33    22    23   ar
    34    15    16    1
    35    16    17    1
    36     8     9   ar
    37     9    10   ar
    38    10    11    1
    39    28    29    1
    40    29    30    2
    41    29    31   am
    42    31    33    1
    43    33    34   ar
    44    34    35   ar
    45    35    36   ar
    46    36    37   ar
    47    37    38   ar
    48    48    40   ar
    49    10     5   ar
    50    38    33   ar
    51    47    42   ar
    52    17    12    1
    53    23    18   ar
    54    41    49    1
    55     1     4    1
    56    31    32    1
