@<TRIPOS>MOLECULE
*****
 27 29 0 0 0
SMALL
GASTEIGER

@<TRIPOS>ATOM
      1 C         -15.1825    1.0962  -13.1179 C.ar    1  UNL1        0.1385
      2 C         -15.6634    0.1381  -14.0307 C.ar    1  UNL1        0.0366
      3 C         -15.1221    0.0563  -15.3168 C.ar    1  UNL1       -0.0011
      4 C         -14.0885    0.9207  -15.7087 C.ar    1  UNL1       -0.0206
      5 C         -13.6053    1.8706  -14.7957 C.ar    1  UNL1       -0.0011
      6 C         -14.1466    1.9515  -13.5102 C.ar    1  UNL1        0.0366
      7 O         -15.6991    1.2359  -11.8199 O.3     1  UNL1       -0.4750
      8 C         -17.0782    1.1382  -11.4588 C.3     1  UNL1        0.2117
      9 C         -17.8936    2.2987  -12.0409 C.3     1  UNL1        0.0931
     10 C         -22.0727    1.9947  -11.1240 C.ar    1  UNL1        0.0244
     11 C         -21.2111    2.8223  -10.3883 C.ar    1  UNL1        0.0964
     12 N         -19.8902    2.8884  -10.7021 N.ar    1  UNL1       -0.2482
     13 C         -19.3526    2.1547  -11.7142 C.ar    1  UNL1        0.0650
     14 C         -20.1767    1.3104  -12.4713 C.ar    1  UNL1        0.0442
     15 C         -21.5370    1.2255  -12.1696 C.ar    1  UNL1        0.1388
     16 F         -22.3287    0.3962  -12.8959 F       1  UNL1       -0.2044
     17 C         -24.3586    2.8899  -11.5671 C.3     1  UNL1        0.0052
     18 C         -23.5303    1.8981  -10.7571 C.3     1  UNL1        0.0302
     19 C         -13.5331    0.8520  -17.1085 C.3     1  UNL1        0.0468
     20 C         -14.6423    0.6045  -18.1433 C.3     1  UNL1        0.1369
     21 S         -14.9053    2.0983  -19.1937 S.3     1  UNL1       -0.0482
     22 C         -14.4049    1.1809  -20.6405 C.2     1  UNL1        0.2792
     23 O         -14.3034    1.7128  -21.7765 O.2     1  UNL1       -0.2625
     24 N         -14.1197   -0.1854  -20.4279 N.am    1  UNL1       -0.2460
     25 C         -14.2676   -0.5204  -19.0616 C.2     1  UNL1        0.2392
     26 O         -14.1040   -1.7008  -18.6532 O.2     1  UNL1       -0.2737
     27 H         -13.8395   -0.8569  -21.1770 H       1  UNL1        0.1583
@<TRIPOS>BOND
     1    17    18    1
     2    18    10    1
     3    10    11   ar
     4    11    12   ar
     5    12    13   ar
     6    13     9    1
     7     9     8    1
     8     8     7    1
     9     7     1    1
    10     1     2   ar
    11     2     3   ar
    12     3     4   ar
    13     4    19    1
    14    19    20    1
    15    20    21    1
    16    21    22    1
    17    22    23    2
    18    22    24   am
    19    24    25   am
    20    25    26    2
    21     4     5   ar
    22     5     6   ar
    23    13    14   ar
    24    14    15   ar
    25    15    16    1
    26    15    10   ar
    27     6     1   ar
    28    25    20    1
    29    24    27    1
@<TRIPOS>MOLECULE
*****
 27 29 0 0 0
SMALL
GASTEIGER

@<TRIPOS>ATOM
      1 C         -25.4828  -13.2861  -14.3780 C.ar    1  UNL1        0.1385
      2 C         -25.5588  -11.9928  -14.9293 C.ar    1  UNL1        0.0366
      3 C         -25.3107  -10.8716  -14.1323 C.ar    1  UNL1       -0.0011
      4 C         -24.9744  -11.0227  -12.7784 C.ar    1  UNL1       -0.0206
      5 C         -24.8921  -12.3127  -12.2319 C.ar    1  UNL1       -0.0011
      6 C         -25.1399  -13.4330  -13.0292 C.ar    1  UNL1        0.0366
      7 O         -25.7381  -14.4471  -15.1251 O.3     1  UNL1       -0.4750
      8 C         -24.8834  -14.9928  -16.1319 C.3     1  UNL1        0.2117
      9 C         -23.4203  -15.0130  -15.6743 C.3     1  UNL1        0.0931
     10 C         -21.7686  -11.0625  -15.9288 C.ar    1  UNL1        0.0244
     11 C         -22.3908  -11.6775  -17.0258 C.ar    1  UNL1        0.0964
     12 N         -22.8966  -12.9340  -16.9113 N.ar    1  UNL1       -0.2482
     13 C         -22.8077  -13.6437  -15.7537 C.ar    1  UNL1        0.0650
     14 C         -22.1889  -13.0693  -14.6347 C.ar    1  UNL1        0.0442
     15 C         -21.6622  -11.7798  -14.7262 C.ar    1  UNL1        0.1388
     16 F         -21.0514  -11.2327  -13.6447 F       1  UNL1       -0.2044
     17 C         -22.2517   -8.6162  -15.8564 C.3     1  UNL1        0.0052
     18 C         -21.1810   -9.6823  -16.0642 C.3     1  UNL1        0.0302
     19 C         -24.7430   -9.8089  -11.9150 C.3     1  UNL1        0.0468
     20 C         -24.0037  -10.1730  -10.6175 C.3     1  UNL1        0.1369
     21 S         -22.4403   -9.2061  -10.4594 S.3     1  UNL1       -0.0482
     22 C         -23.0639   -8.4213   -8.9827 C.2     1  UNL1        0.2792
     23 O         -22.4274   -7.5216   -8.3751 O.2     1  UNL1       -0.2625
     24 N         -24.3278   -8.8693   -8.5410 N.am    1  UNL1       -0.2460
     25 C         -24.8462   -9.8489   -9.4199 C.2     1  UNL1        0.2392
     26 O         -25.9467  -10.4186   -9.1931 O.2     1  UNL1       -0.2737
     27 H         -24.8126   -8.5257   -7.6823 H       1  UNL1        0.1583
@<TRIPOS>BOND
     1    17    18    1
     2    18    10    1
     3    10    11   ar
     4    11    12   ar
     5    12    13   ar
     6    13     9    1
     7     9     8    1
     8     8     7    1
     9     7     1    1
    10     1     2   ar
    11     2     3   ar
    12     3     4   ar
    13     4    19    1
    14    19    20    1
    15    20    21    1
    16    21    22    1
    17    22    23    2
    18    22    24   am
    19    24    25   am
    20    25    26    2
    21     4     5   ar
    22     5     6   ar
    23    13    14   ar
    24    14    15   ar
    25    15    16    1
    26    15    10   ar
    27     6     1   ar
    28    25    20    1
    29    24    27    1
@<TRIPOS>MOLECULE
*****
 27 29 0 0 0
SMALL
GASTEIGER

@<TRIPOS>ATOM
      1 C         -25.2196  -12.0863  -13.8632 C.ar    1  UNL1        0.1385
      2 C         -25.5622  -10.7942  -14.3054 C.ar    1  UNL1        0.0366
      3 C         -25.1801   -9.6718  -13.5650 C.ar    1  UNL1       -0.0011
      4 C         -24.4438   -9.8197  -12.3797 C.ar    1  UNL1       -0.0206
      5 C         -24.0970  -11.1077  -11.9438 C.ar    1  UNL1       -0.0011
      6 C         -24.4789  -12.2291  -12.6845 C.ar    1  UNL1        0.0366
      7 O         -25.5905  -13.2499  -14.5558 O.3     1  UNL1       -0.4750
      8 C         -24.7876  -14.4231  -14.7003 C.3     1  UNL1        0.2117
      9 C         -23.8688  -14.3262  -15.9238 C.3     1  UNL1        0.0931
     10 C         -21.9538  -10.4986  -16.2091 C.ar    1  UNL1        0.0244
     11 C         -21.5860  -11.4404  -15.2362 C.ar    1  UNL1        0.0964
     12 N         -22.2199  -12.6410  -15.1702 N.ar    1  UNL1       -0.2482
     13 C         -23.2321  -12.9689  -16.0184 C.ar    1  UNL1        0.0650
     14 C         -23.6352  -12.0551  -17.0020 C.ar    1  UNL1        0.0442
     15 C         -22.9995  -10.8156  -17.0913 C.ar    1  UNL1        0.1388
     16 F         -23.4023   -9.9281  -18.0358 F       1  UNL1       -0.2044
     17 C         -22.0157   -8.1381  -15.4049 C.3     1  UNL1        0.0052
     18 C         -21.2725   -9.1564  -16.2631 C.3     1  UNL1        0.0302
     19 C         -24.0653   -8.6081  -11.5666 C.3     1  UNL1        0.0468
     20 C         -22.9258   -8.9225  -10.5841 C.3     1  UNL1        0.1369
     21 S         -21.5404   -7.7196  -10.7792 S.3     1  UNL1       -0.0482
     22 C         -21.7943   -7.1418   -9.1098 C.2     1  UNL1        0.2792
     23 O         -21.1381   -6.1874   -8.6177 O.2     1  UNL1       -0.2625
     24 N         -22.7899   -7.8207   -8.3741 N.am    1  UNL1       -0.2460
     25 C         -23.4052   -8.8174   -9.1669 C.2     1  UNL1        0.2392
     26 O         -24.2942   -9.5756   -8.6959 O.2     1  UNL1       -0.2737
     27 H         -23.0369   -7.6160   -7.3802 H       1  UNL1        0.1583
@<TRIPOS>BOND
     1    17    18    1
     2    18    10    1
     3    10    11   ar
     4    11    12   ar
     5    12    13   ar
     6    13     9    1
     7     9     8    1
     8     8     7    1
     9     7     1    1
    10     1     2   ar
    11     2     3   ar
    12     3     4   ar
    13     4    19    1
    14    19    20    1
    15    20    21    1
    16    21    22    1
    17    22    23    2
    18    22    24   am
    19    24    25   am
    20    25    26    2
    21     4     5   ar
    22     5     6   ar
    23    13    14   ar
    24    14    15   ar
    25    15    16    1
    26    15    10   ar
    27     6     1   ar
    28    25    20    1
    29    24    27    1
@<TRIPOS>MOLECULE
*****
 27 29 0 0 0
SMALL
GASTEIGER

@<TRIPOS>ATOM
      1 C         -21.7638   -9.7214  -14.9191 C.ar    1  UNL1        0.1385
      2 C         -21.8326  -10.8842  -14.1282 C.ar    1  UNL1        0.0366
      3 C         -21.8429  -10.7883  -12.7338 C.ar    1  UNL1       -0.0011
      4 C         -21.7944   -9.5334  -12.1077 C.ar    1  UNL1       -0.0206
      5 C         -21.7329   -8.3748  -12.8972 C.ar    1  UNL1       -0.0011
      6 C         -21.7231   -8.4715  -14.2910 C.ar    1  UNL1        0.0366
      7 O         -21.7332   -9.7572  -16.3223 O.3     1  UNL1       -0.4750
      8 C         -22.8664   -9.9351  -17.1745 C.3     1  UNL1        0.2117
      9 C         -23.0668  -11.4105  -17.5399 C.3     1  UNL1        0.0931
     10 C         -25.6076  -13.3806  -14.7006 C.ar    1  UNL1        0.0244
     11 C         -25.7569  -12.0201  -15.0095 C.ar    1  UNL1        0.0964
     12 N         -24.9286  -11.4264  -15.9089 N.ar    1  UNL1       -0.2482
     13 C         -23.9257  -12.1094  -16.5249 C.ar    1  UNL1        0.0650
     14 C         -23.7375  -13.4691  -16.2412 C.ar    1  UNL1        0.0442
     15 C         -24.5755  -14.1024  -15.3218 C.ar    1  UNL1        0.1388
     16 F         -24.3811  -15.4156  -15.0393 F       1  UNL1       -0.2044
     17 C         -25.8068  -14.1292  -12.3294 C.3     1  UNL1        0.0052
     18 C         -26.5057  -14.0312  -13.6814 C.3     1  UNL1        0.0302
     19 C         -21.7695   -9.4374  -10.6035 C.3     1  UNL1        0.0468
     20 C         -23.0273   -8.7388  -10.0627 C.3     1  UNL1        0.1369
     21 S         -24.5549   -9.5157  -10.7463 S.3     1  UNL1       -0.0482
     22 C         -25.0513  -10.0073   -9.1040 C.2     1  UNL1        0.2792
     23 O         -26.0815  -10.6969   -8.8873 O.2     1  UNL1       -0.2625
     24 N         -24.2059   -9.5792   -8.0574 N.am    1  UNL1       -0.2460
     25 C         -23.1000   -8.8616   -8.5697 C.2     1  UNL1        0.2392
     26 O         -22.2389   -8.3487   -7.8065 O.2     1  UNL1       -0.2737
     27 H         -24.3750   -9.7656   -7.0438 H       1  UNL1        0.1583
@<TRIPOS>BOND
     1    17    18    1
     2    18    10    1
     3    10    11   ar
     4    11    12   ar
     5    12    13   ar
     6    13     9    1
     7     9     8    1
     8     8     7    1
     9     7     1    1
    10     1     2   ar
    11     2     3   ar
    12     3     4   ar
    13     4    19    1
    14    19    20    1
    15    20    21    1
    16    21    22    1
    17    22    23    2
    18    22    24   am
    19    24    25   am
    20    25    26    2
    21     4     5   ar
    22     5     6   ar
    23    13    14   ar
    24    14    15   ar
    25    15    16    1
    26    15    10   ar
    27     6     1   ar
    28    25    20    1
    29    24    27    1
@<TRIPOS>MOLECULE
*****
 27 29 0 0 0
SMALL
GASTEIGER

@<TRIPOS>ATOM
      1 C         -24.4474   -5.4886  -11.8394 C.ar    1  UNL1        0.1385
      2 C         -23.3198   -4.7105  -11.5151 C.ar    1  UNL1        0.0366
      3 C         -22.0864   -5.3230  -11.2752 C.ar    1  UNL1       -0.0011
      4 C         -21.9566   -6.7174  -11.3642 C.ar    1  UNL1       -0.0206
      5 C         -23.0798   -7.4913  -11.6943 C.ar    1  UNL1       -0.0011
      6 C         -24.3121   -6.8782  -11.9343 C.ar    1  UNL1        0.0366
      7 O         -25.7143   -4.9304  -12.0737 O.3     1  UNL1       -0.4750
      8 C         -26.7801   -5.5581  -12.7892 C.3     1  UNL1        0.2117
      9 C         -26.4197   -5.7632  -14.2652 C.3     1  UNL1        0.0931
     10 C         -28.8385   -3.3940  -16.8986 C.ar    1  UNL1        0.0244
     11 C         -27.4415   -3.4429  -17.0191 C.ar    1  UNL1        0.0964
     12 N         -26.7055   -4.1989  -16.1620 N.ar    1  UNL1       -0.2482
     13 C         -27.2801   -4.9143  -15.1571 C.ar    1  UNL1        0.0650
     14 C         -28.6724   -4.8892  -14.9972 C.ar    1  UNL1        0.0442
     15 C         -29.4508   -4.1214  -15.8651 C.ar    1  UNL1        0.1388
     16 F         -30.7973   -4.0885  -15.6981 F       1  UNL1       -0.2044
     17 C         -28.8507   -2.1809  -19.0784 C.3     1  UNL1        0.0052
     18 C         -29.6515   -2.5325  -17.8289 C.3     1  UNL1        0.0302
     19 C         -20.6328   -7.3755  -11.0694 C.3     1  UNL1        0.0468
     20 C         -20.7659   -8.4412   -9.9698 C.3     1  UNL1        0.1369
     21 S         -19.9609  -10.0196  -10.4846 S.3     1  UNL1       -0.0482
     22 C         -18.7959   -9.8751   -9.1403 C.2     1  UNL1        0.2792
     23 O         -17.8539  -10.6923   -8.9714 O.2     1  UNL1       -0.2625
     24 N         -18.9931   -8.7747   -8.2780 N.am    1  UNL1       -0.2460
     25 C         -20.0873   -7.9899   -8.7108 C.2     1  UNL1        0.2392
     26 O         -20.4689   -6.9799   -8.0618 O.2     1  UNL1       -0.2737
     27 H         -18.4117   -8.5694   -7.4351 H       1  UNL1        0.1583
@<TRIPOS>BOND
     1    17    18    1
     2    18    10    1
     3    10    11   ar
     4    11    12   ar
     5    12    13   ar
     6    13     9    1
     7     9     8    1
     8     8     7    1
     9     7     1    1
    10     1     2   ar
    11     2     3   ar
    12     3     4   ar
    13     4    19    1
    14    19    20    1
    15    20    21    1
    16    21    22    1
    17    22    23    2
    18    22    24   am
    19    24    25   am
    20    25    26    2
    21     4     5   ar
    22     5     6   ar
    23    13    14   ar
    24    14    15   ar
    25    15    16    1
    26    15    10   ar
    27     6     1   ar
    28    25    20    1
    29    24    27    1
@<TRIPOS>MOLECULE
*****
 27 29 0 0 0
SMALL
GASTEIGER

@<TRIPOS>ATOM
      1 C         -25.2504  -12.9002  -14.0454 C.ar    1  UNL1        0.1385
      2 C         -25.7545  -11.8405  -14.8234 C.ar    1  UNL1        0.0366
      3 C         -25.6015  -10.5183  -14.3967 C.ar    1  UNL1       -0.0011
      4 C         -24.9366  -10.2323  -13.1945 C.ar    1  UNL1       -0.0206
      5 C         -24.4286  -11.2890  -12.4234 C.ar    1  UNL1       -0.0011
      6 C         -24.5815  -12.6104  -12.8508 C.ar    1  UNL1        0.0366
      7 O         -25.3894  -14.2476  -14.4149 O.3     1  UNL1       -0.4750
      8 C         -24.9178  -14.8288  -15.6321 C.3     1  UNL1        0.2117
      9 C         -23.3859  -14.8363  -15.6930 C.3     1  UNL1        0.0931
     10 C         -21.7314  -10.9031  -16.1304 C.ar    1  UNL1        0.0244
     11 C         -21.3673  -11.7463  -15.0697 C.ar    1  UNL1        0.0964
     12 N         -21.9176  -12.9842  -14.9579 N.ar    1  UNL1       -0.2482
     13 C         -22.8419  -13.4444  -15.8443 C.ar    1  UNL1        0.0650
     14 C         -23.2385  -12.6324  -16.9159 C.ar    1  UNL1        0.0442
     15 C         -22.6874  -11.3572  -17.0535 C.ar    1  UNL1        0.1388
     16 F         -23.0846  -10.5688  -18.0843 F       1  UNL1       -0.2044
     17 C         -22.1279   -8.4745  -15.7213 C.3     1  UNL1        0.0052
     18 C         -21.1447   -9.5200  -16.2372 C.3     1  UNL1        0.0302
     19 C         -24.8059   -8.8070  -12.7213 C.3     1  UNL1        0.0468
     20 C         -26.0132   -7.9579  -13.1506 C.3     1  UNL1        0.1369
     21 S         -26.9674   -7.3829  -11.6799 S.3     1  UNL1       -0.0482
     22 C         -26.5964   -5.6861  -12.0907 C.2     1  UNL1        0.2792
     23 O         -26.9486   -4.7220  -11.3626 O.2     1  UNL1       -0.2625
     24 N         -25.8710   -5.4926  -13.2863 N.am    1  UNL1       -0.2460
     25 C         -25.5626   -6.7338  -13.8905 C.2     1  UNL1        0.2392
     26 O         -24.9554   -6.7951  -14.9926 O.2     1  UNL1       -0.2737
     27 H         -25.6007   -4.5607  -13.6724 H       1  UNL1        0.1583
@<TRIPOS>BOND
     1    17    18    1
     2    18    10    1
     3    10    11   ar
     4    11    12   ar
     5    12    13   ar
     6    13     9    1
     7     9     8    1
     8     8     7    1
     9     7     1    1
    10     1     2   ar
    11     2     3   ar
    12     3     4   ar
    13     4    19    1
    14    19    20    1
    15    20    21    1
    16    21    22    1
    17    22    23    2
    18    22    24   am
    19    24    25   am
    20    25    26    2
    21     4     5   ar
    22     5     6   ar
    23    13    14   ar
    24    14    15   ar
    25    15    16    1
    26    15    10   ar
    27     6     1   ar
    28    25    20    1
    29    24    27    1
@<TRIPOS>MOLECULE
*****
 27 29 0 0 0
SMALL
GASTEIGER

@<TRIPOS>ATOM
      1 C         -14.0132    1.0117  -16.2556 C.ar    1  UNL1        0.1385
      2 C         -13.5462    2.1270  -16.9769 C.ar    1  UNL1        0.0366
      3 C         -13.6259    2.1473  -18.3723 C.ar    1  UNL1       -0.0011
      4 C         -14.1801    1.0620  -19.0680 C.ar    1  UNL1       -0.0206
      5 C         -14.6516   -0.0461  -18.3474 C.ar    1  UNL1       -0.0011
      6 C         -14.5719   -0.0655  -16.9526 C.ar    1  UNL1        0.0366
      7 O         -13.9433    0.9282  -14.8558 O.3     1  UNL1       -0.4750
      8 C         -14.3328    1.9546  -13.9411 C.3     1  UNL1        0.2117
      9 C         -14.9749    1.3666  -12.6791 C.3     1  UNL1        0.0931
     10 C         -19.1843    2.1626  -12.4653 C.ar    1  UNL1        0.0244
     11 C         -18.6749    1.0481  -13.1487 C.ar    1  UNL1        0.0964
     12 N         -17.3341    0.8310  -13.2025 N.ar    1  UNL1       -0.2482
     13 C         -16.4430    1.6792  -12.6210 C.ar    1  UNL1        0.0650
     14 C         -16.9088    2.8081  -11.9329 C.ar    1  UNL1        0.0442
     15 C         -18.2812    3.0530  -11.8623 C.ar    1  UNL1        0.1388
     16 F         -18.7274    4.1547  -11.2072 F       1  UNL1       -0.2044
     17 C         -21.2369    2.1225  -11.0481 C.3     1  UNL1        0.0052
     18 C         -20.6680    2.4200  -12.4315 C.3     1  UNL1        0.0302
     19 C         -14.2309    1.0739  -20.5745 C.3     1  UNL1        0.0468
     20 C         -15.5133    0.4095  -21.1003 C.3     1  UNL1        0.1369
     21 S         -16.4734    1.5794  -22.1557 S.3     1  UNL1       -0.0482
     22 C         -16.2515    0.5059  -23.5642 C.2     1  UNL1        0.2792
     23 O         -16.6619    0.8072  -24.7150 O.2     1  UNL1       -0.2625
     24 N         -15.5746   -0.7060  -23.3068 N.am    1  UNL1       -0.2460
     25 C         -15.1821   -0.7812  -21.9499 C.2     1  UNL1        0.2392
     26 O         -14.6001   -1.7993  -21.4897 O.2     1  UNL1       -0.2737
     27 H         -15.3904   -1.4463  -24.0201 H       1  UNL1        0.1583
@<TRIPOS>BOND
     1    17    18    1
     2    18    10    1
     3    10    11   ar
     4    11    12   ar
     5    12    13   ar
     6    13     9    1
     7     9     8    1
     8     8     7    1
     9     7     1    1
    10     1     2   ar
    11     2     3   ar
    12     3     4   ar
    13     4    19    1
    14    19    20    1
    15    20    21    1
    16    21    22    1
    17    22    23    2
    18    22    24   am
    19    24    25   am
    20    25    26    2
    21     4     5   ar
    22     5     6   ar
    23    13    14   ar
    24    14    15   ar
    25    15    16    1
    26    15    10   ar
    27     6     1   ar
    28    25    20    1
    29    24    27    1
@<TRIPOS>MOLECULE
*****
 27 29 0 0 0
SMALL
GASTEIGER

@<TRIPOS>ATOM
      1 C         -25.1605  -11.9901  -13.8445 C.ar    1  UNL1        0.1385
      2 C         -24.4921  -12.1521  -12.6159 C.ar    1  UNL1        0.0366
      3 C         -24.1125  -11.0342  -11.8677 C.ar    1  UNL1       -0.0011
      4 C         -24.4012   -9.7402  -12.3274 C.ar    1  UNL1       -0.0206
      5 C         -25.0736   -9.5803  -13.5487 C.ar    1  UNL1       -0.0011
      6 C         -25.4531  -10.6983  -14.2959 C.ar    1  UNL1        0.0366
      7 O         -25.5505  -13.0746  -14.6464 O.3     1  UNL1       -0.4750
      8 C         -24.8604  -14.3215  -14.7517 C.3     1  UNL1        0.2117
      9 C         -23.8204  -14.2931  -15.8779 C.3     1  UNL1        0.0931
     10 C         -21.9807  -10.4403  -16.2900 C.ar    1  UNL1        0.0244
     11 C         -21.6375  -11.3177  -15.2504 C.ar    1  UNL1        0.0964
     12 N         -22.2466  -12.5284  -15.1459 N.ar    1  UNL1       -0.2482
     13 C         -23.2107  -12.9276  -16.0194 C.ar    1  UNL1        0.0650
     14 C         -23.5881  -12.0795  -17.0697 C.ar    1  UNL1        0.0442
     15 C         -22.9769  -10.8312  -17.1994 C.ar    1  UNL1        0.1388
     16 F         -23.3552  -10.0072  -18.2093 F       1  UNL1       -0.2044
     17 C         -22.3537   -7.9759  -16.1871 C.3     1  UNL1        0.0052
     18 C         -21.3280   -9.0864  -16.3881 C.3     1  UNL1        0.0302
     19 C         -23.9578   -8.5376  -11.5340 C.3     1  UNL1        0.0468
     20 C         -23.2369   -7.5111  -12.4224 C.3     1  UNL1        0.1369
     21 S         -23.5077   -5.7966  -11.7967 S.3     1  UNL1       -0.0482
     22 C         -21.7580   -5.6217  -11.4910 C.2     1  UNL1        0.2792
     23 O         -21.2649   -4.5959  -10.9539 O.2     1  UNL1       -0.2625
     24 N         -20.9577   -6.7165  -11.8836 N.am    1  UNL1       -0.2460
     25 C         -21.7570   -7.7541  -12.4177 C.2     1  UNL1        0.2392
     26 O         -21.2440   -8.8113  -12.8717 O.2     1  UNL1       -0.2737
     27 H         -19.9180   -6.7543  -11.7935 H       1  UNL1        0.1583
@<TRIPOS>BOND
     1    17    18    1
     2    18    10    1
     3    10    11   ar
     4    11    12   ar
     5    12    13   ar
     6    13     9    1
     7     9     8    1
     8     8     7    1
     9     7     1    1
    10     1     2   ar
    11     2     3   ar
    12     3     4   ar
    13     4    19    1
    14    19    20    1
    15    20    21    1
    16    21    22    1
    17    22    23    2
    18    22    24   am
    19    24    25   am
    20    25    26    2
    21     4     5   ar
    22     5     6   ar
    23    13    14   ar
    24    14    15   ar
    25    15    16    1
    26    15    10   ar
    27     6     1   ar
    28    25    20    1
    29    24    27    1
@<TRIPOS>MOLECULE
*****
 27 29 0 0 0
SMALL
GASTEIGER

@<TRIPOS>ATOM
      1 C         -22.4659  -10.2568  -10.7952 C.ar    1  UNL1        0.1385
      2 C         -23.8031  -10.3882  -11.2160 C.ar    1  UNL1        0.0366
      3 C         -24.1049  -11.0579  -12.4051 C.ar    1  UNL1       -0.0011
      4 C         -23.0809  -11.6140  -13.1868 C.ar    1  UNL1       -0.0206
      5 C         -21.7490  -11.4884  -12.7628 C.ar    1  UNL1       -0.0011
      6 C         -21.4481  -10.8192  -11.5738 C.ar    1  UNL1        0.0366
      7 O         -22.1018   -9.5806   -9.6199 O.3     1  UNL1       -0.4750
      8 C         -22.5767   -8.2935   -9.2199 C.3     1  UNL1        0.2117
      9 C         -21.8629   -7.1711   -9.9823 C.3     1  UNL1        0.0931
     10 C         -22.2720   -7.7490  -14.2128 C.ar    1  UNL1        0.0244
     11 C         -21.0318   -7.8607  -13.5663 C.ar    1  UNL1        0.0964
     12 N         -20.9378   -7.6634  -12.2247 N.ar    1  UNL1       -0.2482
     13 C         -22.0201   -7.3379  -11.4668 C.ar    1  UNL1        0.0650
     14 C         -23.2774   -7.2106  -12.0732 C.ar    1  UNL1        0.0442
     15 C         -23.4007   -7.4090  -13.4495 C.ar    1  UNL1        0.1388
     16 F         -24.6173   -7.2709  -14.0350 F       1  UNL1       -0.2044
     17 C         -21.0178   -8.3239  -16.2911 C.3     1  UNL1        0.0052
     18 C         -22.3712   -7.9373  -15.7038 C.3     1  UNL1        0.0302
     19 C         -23.4091  -12.3039  -14.4864 C.3     1  UNL1        0.0468
     20 C         -23.8657  -13.7533  -14.2552 C.3     1  UNL1        0.1369
     21 S         -25.5690  -14.0177  -14.9135 S.3     1  UNL1       -0.0482
     22 C         -24.9415  -15.2090  -16.0850 C.2     1  UNL1        0.2792
     23 O         -25.6740  -15.7584  -16.9483 O.2     1  UNL1       -0.2625
     24 N         -23.5617  -15.4915  -15.9880 N.am    1  UNL1       -0.2460
     25 C         -22.9622  -14.7130  -14.9705 C.2     1  UNL1        0.2392
     26 O         -21.7421  -14.8361  -14.6818 O.2     1  UNL1       -0.2737
     27 H         -23.0536  -16.1818  -16.5846 H       1  UNL1        0.1583
@<TRIPOS>BOND
     1    17    18    1
     2    18    10    1
     3    10    11   ar
     4    11    12   ar
     5    12    13   ar
     6    13     9    1
     7     9     8    1
     8     8     7    1
     9     7     1    1
    10     1     2   ar
    11     2     3   ar
    12     3     4   ar
    13     4    19    1
    14    19    20    1
    15    20    21    1
    16    21    22    1
    17    22    23    2
    18    22    24   am
    19    24    25   am
    20    25    26    2
    21     4     5   ar
    22     5     6   ar
    23    13    14   ar
    24    14    15   ar
    25    15    16    1
    26    15    10   ar
    27     6     1   ar
    28    25    20    1
    29    24    27    1
