@<TRIPOS>MOLECULE
*****
 46 51 0 0 0
SMALL
GASTEIGER

@<TRIPOS>ATOM
      1 C          59.3664   89.1844    5.6227 C.ar    1  UNL1        0.0702
      2 C          60.5463   89.4463    4.9084 C.ar    1  UNL1        0.0191
      3 C          60.5318   90.3357    3.8329 C.ar    1  UNL1        0.0356
      4 C          59.3263   90.9482    3.4561 C.ar    1  UNL1        0.1318
      5 N          58.1938   90.6764    4.1624 N.ar    1  UNL1       -0.2279
      6 C          58.1843   89.8145    5.2133 C.ar    1  UNL1        0.1149
      7 N          59.2770   91.8867    2.3651 N.pl3   1  UNL1       -0.2932
      8 C          58.2900   91.7527    1.2843 C.3     1  UNL1        0.0923
      9 C          58.9531   91.9096   -0.0972 C.3     1  UNL1        0.0252
     10 C          60.2384   92.7763   -0.0699 C.3     1  UNL1        0.0472
     11 C          60.1720   93.8121    1.0676 C.3     1  UNL1        0.0252
     12 C          60.1106   93.0967    2.4268 C.3     1  UNL1        0.0923
     13 C          60.5077   93.4616   -1.4239 C.3     1  UNL1        0.2054
     14 O          61.7333   92.9954   -1.9948 O.3     1  UNL1       -0.4755
     15 C          62.8425   92.4911   -1.2957 C.ar    1  UNL1        0.1388
     16 C          63.8111   91.6613   -1.8909 C.ar    1  UNL1        0.0369
     17 C          64.8958   91.2008   -1.1428 C.ar    1  UNL1        0.0033
     18 C          65.0303   91.5617    0.1987 C.ar    1  UNL1        0.0066
     19 C          64.0756   92.3905    0.8123 C.ar    1  UNL1        0.0785
     20 C          62.9917   92.8601    0.0477 C.ar    1  UNL1        0.0433
     21 C          64.2336   92.7734    2.2366 C.2     1  UNL1        0.3381
     22 O          65.0226   93.7044    2.5495 O.2     1  UNL1       -0.2451
     23 O          63.5414   92.1184    3.2547 O.3     1  UNL1       -0.4771
     24 H          62.9744   91.2972    3.0882 H       1  UNL1        0.2954
     25 C          60.4068   88.1020    7.6647 C.2     1  UNL1        0.2839
     26 O          61.1953   89.0603    7.8856 O.2     1  UNL1       -0.2665
     27 N          59.3364   88.2568    6.7211 N.am    1  UNL1       -0.2766
     28 H          58.4451   87.7451    6.9078 H       1  UNL1        0.1553
     29 C          61.2579   83.2103   11.0518 C.ar    1  UNL1        0.0002
     30 C          60.3531   82.6911   10.0863 C.ar    1  UNL1        0.0031
     31 C          59.8546   83.5056    9.0545 C.ar    1  UNL1        0.0375
     32 C          60.2732   84.8309    9.0089 C.ar    1  UNL1        0.1452
     33 O          59.9299   85.7453    8.1351 O.2     1  UNL1       -0.4492
     34 C          60.5577   86.8647    8.4505 C.ar    1  UNL1        0.1946
     35 C          61.3310   86.6715    9.6022 C.ar    1  UNL1        0.0202
     36 C          62.1799   87.6667   10.3342 C.3     1  UNL1        0.0345
     37 C          61.1427   85.3441    9.9324 C.ar    1  UNL1        0.0337
     38 C          61.6578   84.5656   10.9691 C.ar    1  UNL1        0.0028
     39 C          62.7663   80.6834   14.1986 C.ar    1  UNL1        0.1387
     40 C          61.4363   80.5765   13.7787 C.ar    1  UNL1        0.0369
     41 C          60.9444   81.3946   12.7580 C.ar    1  UNL1        0.0031
     42 C          61.7790   82.3403   12.1366 C.ar    1  UNL1        0.0002
     43 C          63.1158   82.4474   12.5594 C.ar    1  UNL1        0.0031
     44 C          63.6066   81.6275   13.5800 C.ar    1  UNL1        0.0369
     45 C          64.2242   80.1816   16.1666 C.3     1  UNL1        0.2525
     46 O          63.2111   79.8390   15.2266 O.3     1  UNL1       -0.4714
@<TRIPOS>BOND
     1    45    46    1
     2    46    39    1
     3    39    40   ar
     4    40    41   ar
     5    41    42   ar
     6    42    29    1
     7    29    30   ar
     8    30    31   ar
     9    31    32   ar
    10    32    33   ar
    11    33    34   ar
    12    34    25    1
    13    25    26    2
    14    25    27   am
    15    27     1    1
    16     1     2   ar
    17     2     3   ar
    18     3     4   ar
    19     4     7    1
    20     7     8    1
    21     8     9    1
    22     9    10    1
    23    10    13    1
    24    13    14    1
    25    14    15    1
    26    15    16   ar
    27    16    17   ar
    28    17    18   ar
    29    18    19   ar
    30    19    21    1
    31    21    22    2
    32    21    23    1
    33    19    20   ar
    34    10    11    1
    35    11    12    1
    36     4     5   ar
    37     5     6   ar
    38    34    35   ar
    39    35    36    1
    40    35    37   ar
    41    37    38   ar
    42    42    43   ar
    43    43    44   ar
    44    44    39   ar
    45    38    29   ar
    46    37    32   ar
    47     6     1   ar
    48    12     7    1
    49    20    15   ar
    50    27    28    1
    51    23    24    1
