@<TRIPOS>MOLECULE
*****
 47 52 0 0 0
SMALL
GASTEIGER

@<TRIPOS>ATOM
      1 C         -27.8833   48.1472  -10.1848 C.ar    1  UNL1        0.1320
      2 C         -28.0067   49.5222  -10.4477 C.ar    1  UNL1        0.0356
      3 C         -26.9866   50.3930  -10.0628 C.ar    1  UNL1        0.0191
      4 C         -25.8368   49.9008   -9.4361 C.ar    1  UNL1        0.0702
      5 C         -25.7561   48.5254   -9.1709 C.ar    1  UNL1        0.1149
      6 N         -26.7646   47.6969   -9.5497 N.ar    1  UNL1       -0.2279
      7 C         -30.2623   47.6884  -10.9638 C.3     1  UNL1        0.1318
      8 C         -31.3681   46.7188  -10.4804 C.3     1  UNL1        0.0311
      9 C         -31.0341   46.1204   -9.0951 C.3     1  UNL1        0.0475
     10 C         -29.6803   45.3532   -9.1188 C.3     1  UNL1        0.0252
     11 C         -28.7605   45.7796  -10.2748 C.3     1  UNL1        0.0926
     12 N         -28.9253   47.2134  -10.5514 N.pl3   1  UNL1       -0.2883
     13 C         -30.4614   46.6572  -13.3703 C.3     1  UNL1        0.0740
     14 C         -30.3250   47.8469  -12.4663 C.2     1  UNL1        0.1689
     15 O         -30.2490   48.9610  -12.9625 O.2     1  UNL1       -0.2943
     16 C         -31.0518   47.2058   -8.0019 C.3     1  UNL1        0.2054
     17 O         -30.0326   46.9407   -7.0402 O.3     1  UNL1       -0.4755
     18 C         -29.0290   47.8504   -6.6758 C.ar    1  UNL1        0.1388
     19 C         -27.8260   47.3426   -6.1748 C.ar    1  UNL1        0.0369
     20 C         -26.7943   48.2055   -5.8015 C.ar    1  UNL1        0.0033
     21 C         -26.9546   49.5872   -5.9253 C.ar    1  UNL1        0.0066
     22 C         -28.1543   50.1216   -6.4252 C.ar    1  UNL1        0.0785
     23 C         -29.1907   49.2449   -6.7986 C.ar    1  UNL1        0.0433
     24 C         -28.3199   51.5866   -6.5556 C.2     1  UNL1        0.3381
     25 O         -27.6533   52.2316   -7.4098 O.2     1  UNL1       -0.2451
     26 O         -29.2148   52.2676   -5.7344 O.3     1  UNL1       -0.4771
     27 H         -29.3358   53.2701   -5.8152 H       1  UNL1        0.2954
     28 N         -24.8083   50.8155   -9.0227 N.am    1  UNL1       -0.2766
     29 C         -23.7195   51.2383   -9.8623 C.2     1  UNL1        0.2839
     30 O         -23.5777   50.7539  -11.0168 O.2     1  UNL1       -0.2665
     31 H         -24.8988   51.2310   -8.0702 H       1  UNL1        0.1553
     32 C         -22.7319   52.2248   -9.3916 C.ar    1  UNL1        0.1946
     33 O         -21.6912   51.8840   -8.6519 O.2     1  UNL1       -0.4492
     34 C         -21.0088   52.9722   -8.3908 C.ar    1  UNL1        0.1452
     35 C         -19.8451   53.0808   -7.6375 C.ar    1  UNL1        0.0375
     36 C         -19.2750   54.3569   -7.4841 C.ar    1  UNL1        0.0031
     37 C         -19.8726   55.4990   -8.0834 C.ar    1  UNL1        0.0002
     38 C         -21.0563   55.3434   -8.8440 C.ar    1  UNL1        0.0028
     39 C         -21.5946   54.0631   -8.9729 C.ar    1  UNL1        0.0337
     40 C         -22.7091   53.6022   -9.6440 C.ar    1  UNL1        0.0202
     41 C         -23.6452   54.4150  -10.4861 C.3     1  UNL1        0.0345
     42 C         -19.2618   56.8419   -7.9146 C.ar    1  UNL1        0.0000
     43 C         -19.4831   57.8538   -8.8684 C.ar    1  UNL1        0.0000
     44 C         -18.9068   59.1175   -8.7070 C.ar    1  UNL1        0.0000
     45 C         -18.1061   59.3860   -7.5946 C.ar    1  UNL1        0.0000
     46 C         -17.8796   58.3910   -6.6412 C.ar    1  UNL1        0.0000
     47 C         -18.4526   57.1252   -6.7979 C.ar    1  UNL1        0.0000
@<TRIPOS>BOND
     1    13    14    1
     2    14    15    2
     3    14     7    1
     4     7     8    1
     5     8     9    1
     6     9    16    1
     7    16    17    1
     8    17    18    1
     9    18    19   ar
    10    19    20   ar
    11    20    21   ar
    12    21    22   ar
    13    22    24    1
    14    24    25    2
    15    24    26    1
    16    22    23   ar
    17     9    10    1
    18    10    11    1
    19    11    12    1
    20    12     1    1
    21     1     2   ar
    22     2     3   ar
    23     3     4   ar
    24     4    28    1
    25    28    29   am
    26    29    30    2
    27    29    32    1
    28    32    33   ar
    29    33    34   ar
    30    34    35   ar
    31    35    36   ar
    32    36    37   ar
    33    37    42    1
    34    42    43   ar
    35    43    44   ar
    36    44    45   ar
    37    45    46   ar
    38    46    47   ar
    39    37    38   ar
    40    38    39   ar
    41    39    40   ar
    42    40    41    1
    43     4     5   ar
    44     5     6   ar
    45    12     7    1
    46     6     1   ar
    47    23    18   ar
    48    40    32   ar
    49    39    34   ar
    50    47    42   ar
    51    26    27    1
    52    28    31    1
@<TRIPOS>MOLECULE
*****
 47 52 0 0 0
SMALL
GASTEIGER

@<TRIPOS>ATOM
      1 C         -22.9501   51.9469   -9.7733 C.ar    1  UNL1        0.1320
      2 C         -22.5211   51.5453   -8.4968 C.ar    1  UNL1        0.0356
      3 C         -23.4171   50.9119   -7.6348 C.ar    1  UNL1        0.0191
      4 C         -24.7309   50.6585   -8.0434 C.ar    1  UNL1        0.0702
      5 C         -25.1308   51.0914   -9.3167 C.ar    1  UNL1        0.1149
      6 N         -24.2423   51.7116  -10.1371 N.ar    1  UNL1       -0.2279
      7 C         -20.5969   52.6201  -10.4709 C.3     1  UNL1        0.1318
      8 C         -19.9672   53.9604  -10.9222 C.3     1  UNL1        0.0311
      9 C         -20.9011   55.1558  -10.6265 C.3     1  UNL1        0.0475
     10 C         -22.2761   54.9921  -11.3368 C.3     1  UNL1        0.0252
     11 C         -22.5993   53.5351  -11.7066 C.3     1  UNL1        0.0926
     12 N         -22.0581   52.6221  -10.6903 N.pl3   1  UNL1       -0.2883
     13 C         -18.8298   51.6877  -12.1743 C.3     1  UNL1        0.0740
     14 C         -19.9550   51.4658  -11.2070 C.2     1  UNL1        0.1689
     15 O         -20.3646   50.3286  -11.0271 O.2     1  UNL1       -0.2943
     16 C         -21.0681   55.3687   -9.1098 C.3     1  UNL1        0.2054
     17 O         -19.8069   55.2262   -8.4594 O.3     1  UNL1       -0.4755
     18 C         -19.1910   56.2270   -7.6936 C.ar    1  UNL1        0.1388
     19 C         -18.1105   55.8679   -6.8815 C.ar    1  UNL1        0.0369
     20 C         -17.4606   56.8271   -6.1029 C.ar    1  UNL1        0.0033
     21 C         -17.8847   58.1573   -6.1282 C.ar    1  UNL1        0.0066
     22 C         -18.9685   58.5426   -6.9355 C.ar    1  UNL1        0.0785
     23 C         -19.6196   57.5693   -7.7170 C.ar    1  UNL1        0.0433
     24 C         -19.4143   59.9537   -6.9600 C.2     1  UNL1        0.3381
     25 O         -19.8015   60.5203   -5.9021 O.2     1  UNL1       -0.2451
     26 O         -19.4109   60.6702   -8.1541 O.3     1  UNL1       -0.4771
     27 H         -19.7142   61.6363   -8.1822 H       1  UNL1        0.2954
     28 N         -25.6473   50.0292   -7.1327 N.am    1  UNL1       -0.2766
     29 C         -26.7023   50.7220   -6.4425 C.2     1  UNL1        0.2839
     30 O         -26.8300   51.9701   -6.5591 O.2     1  UNL1       -0.2665
     31 H         -25.5636   48.9961   -7.0147 H       1  UNL1        0.1553
     32 C         -27.6425   50.0015   -5.5667 C.ar    1  UNL1        0.1946
     33 O         -28.9047   49.7986   -5.9016 O.2     1  UNL1       -0.4492
     34 C         -29.4801   49.1416   -4.9242 C.ar    1  UNL1        0.1452
     35 C         -30.8046   48.7249   -4.8495 C.ar    1  UNL1        0.0375
     36 C         -31.2133   48.0282   -3.6986 C.ar    1  UNL1        0.0031
     37 C         -30.2969   47.7588   -2.6458 C.ar    1  UNL1        0.0002
     38 C         -28.9567   48.1993   -2.7636 C.ar    1  UNL1        0.0028
     39 C         -28.5877   48.8891   -3.9183 C.ar    1  UNL1        0.0337
     40 C         -27.3798   49.4241   -4.3182 C.ar    1  UNL1        0.0202
     41 C         -26.0796   49.3489   -3.5767 C.3     1  UNL1        0.0345
     42 C         -30.7396   47.0222   -1.4349 C.ar    1  UNL1        0.0000
     43 C         -30.7485   47.6536   -0.1764 C.ar    1  UNL1        0.0000
     44 C         -31.1659   46.9577    0.9622 C.ar    1  UNL1        0.0000
     45 C         -31.5793   45.6277    0.8588 C.ar    1  UNL1        0.0000
     46 C         -31.5759   44.9904   -0.3840 C.ar    1  UNL1        0.0000
     47 C         -31.1586   45.6811   -1.5259 C.ar    1  UNL1        0.0000
@<TRIPOS>BOND
     1    13    14    1
     2    14    15    2
     3    14     7    1
     4     7     8    1
     5     8     9    1
     6     9    16    1
     7    16    17    1
     8    17    18    1
     9    18    19   ar
    10    19    20   ar
    11    20    21   ar
    12    21    22   ar
    13    22    24    1
    14    24    25    2
    15    24    26    1
    16    22    23   ar
    17     9    10    1
    18    10    11    1
    19    11    12    1
    20    12     1    1
    21     1     2   ar
    22     2     3   ar
    23     3     4   ar
    24     4    28    1
    25    28    29   am
    26    29    30    2
    27    29    32    1
    28    32    33   ar
    29    33    34   ar
    30    34    35   ar
    31    35    36   ar
    32    36    37   ar
    33    37    42    1
    34    42    43   ar
    35    43    44   ar
    36    44    45   ar
    37    45    46   ar
    38    46    47   ar
    39    37    38   ar
    40    38    39   ar
    41    39    40   ar
    42    40    41    1
    43     4     5   ar
    44     5     6   ar
    45    12     7    1
    46     6     1   ar
    47    23    18   ar
    48    40    32   ar
    49    39    34   ar
    50    47    42   ar
    51    26    27    1
    52    28    31    1
@<TRIPOS>MOLECULE
*****
 47 52 0 0 0
SMALL
GASTEIGER

@<TRIPOS>ATOM
      1 C         -28.0322   47.6881  -10.0765 C.ar    1  UNL1        0.1320
      2 C         -28.1781   49.0542  -10.3724 C.ar    1  UNL1        0.0356
      3 C         -27.1649   49.9482  -10.0243 C.ar    1  UNL1        0.0191
      4 C         -25.9998   49.4877   -9.4019 C.ar    1  UNL1        0.0702
      5 C         -25.8965   48.1207   -9.1030 C.ar    1  UNL1        0.1149
      6 N         -26.8986   47.2693   -9.4462 N.ar    1  UNL1       -0.2279
      7 C         -30.2935   47.1499  -11.1126 C.3     1  UNL1        0.1318
      8 C         -31.5191   46.3412  -10.6224 C.3     1  UNL1        0.0311
      9 C         -31.4341   46.0410   -9.1087 C.3     1  UNL1        0.0475
     10 C         -30.1442   45.2437   -8.7589 C.3     1  UNL1        0.0252
     11 C         -29.0371   45.3848   -9.8167 C.3     1  UNL1        0.0926
     12 N         -29.0662   46.7313  -10.4044 N.pl3   1  UNL1       -0.2883
     13 C         -30.6725   47.9975  -13.5686 C.3     1  UNL1        0.0740
     14 C         -30.1219   46.9869  -12.6061 C.2     1  UNL1        0.1689
     15 O         -29.5373   46.0081  -13.0463 O.2     1  UNL1       -0.2943
     16 C         -31.5440   47.3343   -8.2786 C.3     1  UNL1        0.2054
     17 O         -30.3446   47.5344   -7.5334 O.3     1  UNL1       -0.4755
     18 C         -29.8032   48.7905   -7.2228 C.ar    1  UNL1        0.1388
     19 C         -30.5500   49.9296   -7.5398 C.ar    1  UNL1        0.0369
     20 C         -30.0577   51.2028   -7.2479 C.ar    1  UNL1        0.0033
     21 C         -28.8117   51.3506   -6.6351 C.ar    1  UNL1        0.0066
     22 C         -28.0422   50.2214   -6.3075 C.ar    1  UNL1        0.0785
     23 C         -28.5450   48.9407   -6.6061 C.ar    1  UNL1        0.0433
     24 C         -26.7224   50.3824   -5.6573 C.2     1  UNL1        0.3381
     25 O         -26.5976   50.2137   -4.4139 O.2     1  UNL1       -0.2451
     26 O         -25.6040   50.7229   -6.4139 O.3     1  UNL1       -0.4771
     27 H         -24.6961   50.8358   -5.9790 H       1  UNL1        0.2954
     28 N         -24.9784   50.4264   -9.0265 N.am    1  UNL1       -0.2766
     29 C         -23.9714   50.9249   -9.9247 C.2     1  UNL1        0.2839
     30 O         -23.8976   50.4918  -11.1055 O.2     1  UNL1       -0.2665
     31 H         -25.0135   50.8007   -8.0535 H       1  UNL1        0.1553
     32 C         -22.9891   51.9315   -9.4862 C.ar    1  UNL1        0.1946
     33 O         -21.9273   51.6147   -8.7662 O.2     1  UNL1       -0.4492
     34 C         -21.2564   52.7160   -8.5317 C.ar    1  UNL1        0.1452
     35 C         -20.0782   52.8505   -7.8055 C.ar    1  UNL1        0.0375
     36 C         -19.5248   54.1368   -7.6782 C.ar    1  UNL1        0.0031
     37 C         -20.1531   55.2631   -8.2760 C.ar    1  UNL1        0.0002
     38 C         -21.3507   55.0811   -9.0086 C.ar    1  UNL1        0.0028
     39 C         -21.8717   53.7914   -9.1121 C.ar    1  UNL1        0.0337
     40 C         -22.9934   53.3062   -9.7535 C.ar    1  UNL1        0.0202
     41 C         -23.9603   54.0954  -10.5831 C.3     1  UNL1        0.0345
     42 C         -19.5597   56.6169   -8.1349 C.ar    1  UNL1        0.0000
     43 C         -18.7767   56.9416   -7.0105 C.ar    1  UNL1        0.0000
     44 C         -18.2191   58.2171   -6.8802 C.ar    1  UNL1        0.0000
     45 C         -18.4345   59.1808   -7.8679 C.ar    1  UNL1        0.0000
     46 C         -19.2086   58.8709   -8.9882 C.ar    1  UNL1        0.0000
     47 C         -19.7696   57.5972   -9.1234 C.ar    1  UNL1        0.0000
@<TRIPOS>BOND
     1    13    14    1
     2    14    15    2
     3    14     7    1
     4     7     8    1
     5     8     9    1
     6     9    16    1
     7    16    17    1
     8    17    18    1
     9    18    19   ar
    10    19    20   ar
    11    20    21   ar
    12    21    22   ar
    13    22    24    1
    14    24    25    2
    15    24    26    1
    16    22    23   ar
    17     9    10    1
    18    10    11    1
    19    11    12    1
    20    12     1    1
    21     1     2   ar
    22     2     3   ar
    23     3     4   ar
    24     4    28    1
    25    28    29   am
    26    29    30    2
    27    29    32    1
    28    32    33   ar
    29    33    34   ar
    30    34    35   ar
    31    35    36   ar
    32    36    37   ar
    33    37    42    1
    34    42    43   ar
    35    43    44   ar
    36    44    45   ar
    37    45    46   ar
    38    46    47   ar
    39    37    38   ar
    40    38    39   ar
    41    39    40   ar
    42    40    41    1
    43     4     5   ar
    44     5     6   ar
    45    12     7    1
    46     6     1   ar
    47    23    18   ar
    48    40    32   ar
    49    39    34   ar
    50    47    42   ar
    51    26    27    1
    52    28    31    1
@<TRIPOS>MOLECULE
*****
 47 52 0 0 0
SMALL
GASTEIGER

@<TRIPOS>ATOM
      1 C         -30.9443   47.5921   -4.0843 C.ar    1  UNL1        0.1320
      2 C         -31.5837   46.5915   -4.8358 C.ar    1  UNL1        0.0356
      3 C         -31.5147   46.6240   -6.2290 C.ar    1  UNL1        0.0191
      4 C         -30.7968   47.6349   -6.8772 C.ar    1  UNL1        0.0702
      5 C         -30.1880   48.6290   -6.0964 C.ar    1  UNL1        0.1149
      6 N         -30.2734   48.5802   -4.7410 N.ar    1  UNL1       -0.2279
      7 C         -30.2770   48.6228   -1.8551 C.3     1  UNL1        0.1318
      8 C         -29.7522   48.0272   -0.5260 C.3     1  UNL1        0.0311
      9 C         -29.3019   46.5589   -0.6993 C.3     1  UNL1        0.0475
     10 C         -30.4660   45.6646   -1.2158 C.3     1  UNL1        0.0252
     11 C         -31.5793   46.4609   -1.9163 C.3     1  UNL1        0.0926
     12 N         -31.0064   47.6048   -2.6392 N.pl3   1  UNL1       -0.2883
     13 C         -31.5797   50.7486   -2.6784 C.3     1  UNL1        0.0740
     14 C         -31.1672   49.8137   -1.5798 C.2     1  UNL1        0.1689
     15 O         -31.5504   50.0343   -0.4406 O.2     1  UNL1       -0.2943
     16 C         -28.0640   46.4612   -1.6113 C.3     1  UNL1        0.2054
     17 O         -28.1455   45.2848   -2.4133 O.3     1  UNL1       -0.4755
     18 C         -28.2211   45.2826   -3.8139 C.ar    1  UNL1        0.1388
     19 C         -29.0311   44.3240   -4.4312 C.ar    1  UNL1        0.0369
     20 C         -29.1437   44.2818   -5.8219 C.ar    1  UNL1        0.0033
     21 C         -28.4466   45.1989   -6.6112 C.ar    1  UNL1        0.0066
     22 C         -27.6258   46.1710   -6.0145 C.ar    1  UNL1        0.0785
     23 C         -27.5165   46.2065   -4.6113 C.ar    1  UNL1        0.0433
     24 C         -26.8894   47.1418   -6.8547 C.2     1  UNL1        0.3381
     25 O         -26.7761   48.3441   -6.4922 O.2     1  UNL1       -0.2451
     26 O         -26.3139   46.7356   -8.0560 O.3     1  UNL1       -0.4771
     27 H         -25.8080   47.3918   -8.6387 H       1  UNL1        0.2954
     28 N         -30.7589   47.6678   -8.3134 N.am    1  UNL1       -0.2766
     29 C         -30.9189   48.8632   -9.0975 C.2     1  UNL1        0.2839
     30 O         -31.1768   49.9632   -8.5398 O.2     1  UNL1       -0.2665
     31 H         -30.5493   46.7705   -8.8025 H       1  UNL1        0.1553
     32 C         -30.8106   48.8321  -10.5663 C.ar    1  UNL1        0.1946
     33 O         -31.2832   49.8018  -11.3296 O.2     1  UNL1       -0.4492
     34 C         -31.0426   49.4851  -12.5785 C.ar    1  UNL1        0.1452
     35 C         -31.3744   50.2140  -13.7152 C.ar    1  UNL1        0.0375
     36 C         -31.0174   49.6829  -14.9672 C.ar    1  UNL1        0.0031
     37 C         -30.3369   48.4386  -15.0639 C.ar    1  UNL1        0.0002
     38 C         -30.0163   47.7300  -13.8810 C.ar    1  UNL1        0.0028
     39 C         -30.3879   48.2863  -12.6571 C.ar    1  UNL1        0.0337
     40 C         -30.2100   47.8473  -11.3607 C.ar    1  UNL1        0.0202
     41 C         -29.4893   46.6067  -10.9279 C.3     1  UNL1        0.0345
     42 C         -29.9648   47.8873  -16.3915 C.ar    1  UNL1        0.0000
     43 C         -30.3326   46.5765  -16.7507 C.ar    1  UNL1        0.0000
     44 C         -29.9811   46.0598  -18.0015 C.ar    1  UNL1        0.0000
     45 C         -29.2614   46.8431  -18.9065 C.ar    1  UNL1        0.0000
     46 C         -28.8913   48.1450  -18.5624 C.ar    1  UNL1        0.0000
     47 C         -29.2393   48.6666  -17.3126 C.ar    1  UNL1        0.0000
@<TRIPOS>BOND
     1    13    14    1
     2    14    15    2
     3    14     7    1
     4     7     8    1
     5     8     9    1
     6     9    16    1
     7    16    17    1
     8    17    18    1
     9    18    19   ar
    10    19    20   ar
    11    20    21   ar
    12    21    22   ar
    13    22    24    1
    14    24    25    2
    15    24    26    1
    16    22    23   ar
    17     9    10    1
    18    10    11    1
    19    11    12    1
    20    12     1    1
    21     1     2   ar
    22     2     3   ar
    23     3     4   ar
    24     4    28    1
    25    28    29   am
    26    29    30    2
    27    29    32    1
    28    32    33   ar
    29    33    34   ar
    30    34    35   ar
    31    35    36   ar
    32    36    37   ar
    33    37    42    1
    34    42    43   ar
    35    43    44   ar
    36    44    45   ar
    37    45    46   ar
    38    46    47   ar
    39    37    38   ar
    40    38    39   ar
    41    39    40   ar
    42    40    41    1
    43     4     5   ar
    44     5     6   ar
    45    12     7    1
    46     6     1   ar
    47    23    18   ar
    48    40    32   ar
    49    39    34   ar
    50    47    42   ar
    51    26    27    1
    52    28    31    1
@<TRIPOS>MOLECULE
*****
 47 52 0 0 0
SMALL
GASTEIGER

@<TRIPOS>ATOM
      1 C         -27.9045   48.0006  -10.1514 C.ar    1  UNL1        0.1320
      2 C         -28.0053   49.3709  -10.4468 C.ar    1  UNL1        0.0356
      3 C         -26.9837   50.2380  -10.0579 C.ar    1  UNL1        0.0191
      4 C         -25.8542   49.7464   -9.3948 C.ar    1  UNL1        0.0702
      5 C         -25.7962   48.3763   -9.0980 C.ar    1  UNL1        0.1149
      6 N         -26.8059   47.5514   -9.4814 N.ar    1  UNL1       -0.2279
      7 C         -30.3713   47.4705  -10.4843 C.3     1  UNL1        0.1318
      8 C         -31.2688   46.2849  -10.0537 C.3     1  UNL1        0.0311
      9 C         -30.5738   45.4014   -8.9930 C.3     1  UNL1        0.0475
     10 C         -29.2249   44.8332   -9.5219 C.3     1  UNL1        0.0252
     11 C         -28.6402   45.6445  -10.6900 C.3     1  UNL1        0.0926
     12 N         -28.9492   47.0711  -10.5212 N.pl3   1  UNL1       -0.2883
     13 C         -31.2855   49.4054  -12.0056 C.3     1  UNL1        0.0740
     14 C         -30.8071   47.9937  -11.8344 C.2     1  UNL1        0.1689
     15 O         -30.7861   47.2543  -12.8072 O.2     1  UNL1       -0.2943
     16 C         -30.3867   46.1661   -7.6687 C.3     1  UNL1        0.2054
     17 O         -29.1434   45.8033   -7.0718 O.3     1  UNL1       -0.4755
     18 C         -28.3815   46.6464   -6.2495 C.ar    1  UNL1        0.1388
     19 C         -28.4968   48.0283   -6.4309 C.ar    1  UNL1        0.0369
     20 C         -27.7631   48.9103   -5.6359 C.ar    1  UNL1        0.0033
     21 C         -26.9053   48.4193   -4.6495 C.ar    1  UNL1        0.0066
     22 C         -26.7717   47.0350   -4.4485 C.ar    1  UNL1        0.0785
     23 C         -27.5141   46.1516   -5.2551 C.ar    1  UNL1        0.0433
     24 C         -25.8620   46.5187   -3.4013 C.2     1  UNL1        0.3381
     25 O         -24.9576   45.6896   -3.6923 O.2     1  UNL1       -0.2451
     26 O         -25.9968   46.9442   -2.0822 O.3     1  UNL1       -0.4771
     27 H         -25.3798   46.5971   -1.3578 H       1  UNL1        0.2954
     28 N         -24.8243   50.6580   -8.9781 N.am    1  UNL1       -0.2766
     29 C         -23.7784   51.1417   -9.8391 C.2     1  UNL1        0.2839
     30 O         -23.6770   50.7180  -11.0213 O.2     1  UNL1       -0.2665
     31 H         -24.8818   51.0240   -8.0030 H       1  UNL1        0.1553
     32 C         -22.7881   52.1215   -9.3599 C.ar    1  UNL1        0.1946
     33 O         -21.7608   51.7748   -8.6043 O.2     1  UNL1       -0.4492
     34 C         -21.0719   52.8580   -8.3395 C.ar    1  UNL1        0.1452
     35 C         -19.9176   52.9596   -7.5710 C.ar    1  UNL1        0.0375
     36 C         -19.3376   54.2312   -7.4163 C.ar    1  UNL1        0.0031
     37 C         -19.9162   55.3757   -8.0295 C.ar    1  UNL1        0.0002
     38 C         -21.0909   55.2271   -8.8055 C.ar    1  UNL1        0.0028
     39 C         -21.6394   53.9512   -8.9351 C.ar    1  UNL1        0.0337
     40 C         -22.7490   53.4972   -9.6191 C.ar    1  UNL1        0.0202
     41 C         -23.6658   54.3142  -10.4780 C.3     1  UNL1        0.0345
     42 C         -19.2952   56.7137   -7.8593 C.ar    1  UNL1        0.0000
     43 C         -19.5335   57.7377   -8.7958 C.ar    1  UNL1        0.0000
     44 C         -18.9476   58.9968   -8.6330 C.ar    1  UNL1        0.0000
     45 C         -18.1202   59.2486   -7.5365 C.ar    1  UNL1        0.0000
     46 C         -17.8766   58.2414   -6.6001 C.ar    1  UNL1        0.0000
     47 C         -18.4591   56.9801   -6.7583 C.ar    1  UNL1        0.0000
@<TRIPOS>BOND
     1    13    14    1
     2    14    15    2
     3    14     7    1
     4     7     8    1
     5     8     9    1
     6     9    16    1
     7    16    17    1
     8    17    18    1
     9    18    19   ar
    10    19    20   ar
    11    20    21   ar
    12    21    22   ar
    13    22    24    1
    14    24    25    2
    15    24    26    1
    16    22    23   ar
    17     9    10    1
    18    10    11    1
    19    11    12    1
    20    12     1    1
    21     1     2   ar
    22     2     3   ar
    23     3     4   ar
    24     4    28    1
    25    28    29   am
    26    29    30    2
    27    29    32    1
    28    32    33   ar
    29    33    34   ar
    30    34    35   ar
    31    35    36   ar
    32    36    37   ar
    33    37    42    1
    34    42    43   ar
    35    43    44   ar
    36    44    45   ar
    37    45    46   ar
    38    46    47   ar
    39    37    38   ar
    40    38    39   ar
    41    39    40   ar
    42    40    41    1
    43     4     5   ar
    44     5     6   ar
    45    12     7    1
    46     6     1   ar
    47    23    18   ar
    48    40    32   ar
    49    39    34   ar
    50    47    42   ar
    51    26    27    1
    52    28    31    1
@<TRIPOS>MOLECULE
*****
 47 52 0 0 0
SMALL
GASTEIGER

@<TRIPOS>ATOM
      1 C         -29.7380   48.4985   -2.6350 C.ar    1  UNL1        0.1320
      2 C         -30.2599   48.9095   -3.8734 C.ar    1  UNL1        0.0356
      3 C         -29.3970   49.3752   -4.8661 C.ar    1  UNL1        0.0191
      4 C         -28.0169   49.4153   -4.6404 C.ar    1  UNL1        0.0702
      5 C         -27.5324   49.0167   -3.3854 C.ar    1  UNL1        0.1149
      6 N         -28.3923   48.5721   -2.4315 N.ar    1  UNL1       -0.2279
      7 C         -30.3453   48.3960   -0.1657 C.3     1  UNL1        0.1318
      8 C         -30.7160   47.2342    0.7879 C.3     1  UNL1        0.0311
      9 C         -30.3854   45.8591    0.1645 C.3     1  UNL1        0.0475
     10 C         -31.1358   45.6508   -1.1829 C.3     1  UNL1        0.0252
     11 C         -31.5832   46.9674   -1.8391 C.3     1  UNL1        0.0926
     12 N         -30.5994   48.0261   -1.5735 N.pl3   1  UNL1       -0.2883
     13 C         -31.5794   49.8884    1.6073 C.3     1  UNL1        0.0740
     14 C         -31.1206   49.6415    0.2003 C.2     1  UNL1        0.1689
     15 O         -31.3957   50.4607   -0.6638 O.2     1  UNL1       -0.2943
     16 C         -28.8647   45.6740    0.0013 C.3     1  UNL1        0.2054
     17 O         -28.5984   44.7993   -1.0932 O.3     1  UNL1       -0.4755
     18 C         -27.9824   45.1912   -2.2909 C.ar    1  UNL1        0.1388
     19 C         -26.6069   45.4438   -2.2757 C.ar    1  UNL1        0.0369
     20 C         -25.9456   45.8327   -3.4418 C.ar    1  UNL1        0.0033
     21 C         -26.6536   45.9732   -4.6372 C.ar    1  UNL1        0.0066
     22 C         -28.0363   45.7259   -4.6778 C.ar    1  UNL1        0.0785
     23 C         -28.6964   45.3351   -3.4973 C.ar    1  UNL1        0.0433
     24 C         -28.7828   45.8753   -5.9471 C.2     1  UNL1        0.3381
     25 O         -30.0275   46.0769   -5.9366 O.2     1  UNL1       -0.2451
     26 O         -28.1163   45.7939   -7.1671 O.3     1  UNL1       -0.4771
     27 H         -28.6176   45.8945   -8.0416 H       1  UNL1        0.2954
     28 N         -27.1458   49.9230   -5.6645 N.am    1  UNL1       -0.2766
     29 C         -27.1203   49.4341   -7.0171 C.2     1  UNL1        0.2839
     30 O         -27.8398   48.4573   -7.3571 O.2     1  UNL1       -0.2665
     31 H         -26.5369   50.7310   -5.4107 H       1  UNL1        0.1553
     32 C         -26.2409   50.0415   -8.0311 C.ar    1  UNL1        0.1946
     33 O         -26.6165   50.1983   -9.2884 O.2     1  UNL1       -0.4492
     34 C         -25.6241   50.7551   -9.9388 C.ar    1  UNL1        0.1452
     35 C         -25.5802   51.0935  -11.2868 C.ar    1  UNL1        0.0375
     36 C         -24.4049   51.6871  -11.7801 C.ar    1  UNL1        0.0031
     37 C         -23.2976   51.9333  -10.9233 C.ar    1  UNL1        0.0002
     38 C         -23.3854   51.5749   -9.5566 C.ar    1  UNL1        0.0028
     39 C         -24.5658   50.9863   -9.1031 C.ar    1  UNL1        0.0337
     40 C         -24.9468   50.5458   -7.8517 C.ar    1  UNL1        0.0202
     41 C         -24.1459   50.6405   -6.5886 C.3     1  UNL1        0.0345
     42 C         -22.0613   52.5607  -11.4552 C.ar    1  UNL1        0.0000
     43 C         -22.1362   53.6731  -12.3152 C.ar    1  UNL1        0.0000
     44 C         -20.9705   54.2621  -12.8145 C.ar    1  UNL1        0.0000
     45 C         -19.7198   53.7502  -12.4618 C.ar    1  UNL1        0.0000
     46 C         -19.6322   52.6477  -11.6090 C.ar    1  UNL1        0.0000
     47 C         -20.7946   52.0541  -11.1074 C.ar    1  UNL1        0.0000
@<TRIPOS>BOND
     1    13    14    1
     2    14    15    2
     3    14     7    1
     4     7     8    1
     5     8     9    1
     6     9    16    1
     7    16    17    1
     8    17    18    1
     9    18    19   ar
    10    19    20   ar
    11    20    21   ar
    12    21    22   ar
    13    22    24    1
    14    24    25    2
    15    24    26    1
    16    22    23   ar
    17     9    10    1
    18    10    11    1
    19    11    12    1
    20    12     1    1
    21     1     2   ar
    22     2     3   ar
    23     3     4   ar
    24     4    28    1
    25    28    29   am
    26    29    30    2
    27    29    32    1
    28    32    33   ar
    29    33    34   ar
    30    34    35   ar
    31    35    36   ar
    32    36    37   ar
    33    37    42    1
    34    42    43   ar
    35    43    44   ar
    36    44    45   ar
    37    45    46   ar
    38    46    47   ar
    39    37    38   ar
    40    38    39   ar
    41    39    40   ar
    42    40    41    1
    43     4     5   ar
    44     5     6   ar
    45    12     7    1
    46     6     1   ar
    47    23    18   ar
    48    40    32   ar
    49    39    34   ar
    50    47    42   ar
    51    26    27    1
    52    28    31    1
@<TRIPOS>MOLECULE
*****
 47 52 0 0 0
SMALL
GASTEIGER

@<TRIPOS>ATOM
      1 C         -29.4447   48.4411   -2.0446 C.ar    1  UNL1        0.1320
      2 C         -30.0367   48.8723   -3.2440 C.ar    1  UNL1        0.0356
      3 C         -29.2306   49.3361   -4.2842 C.ar    1  UNL1        0.0191
      4 C         -27.8387   49.3546   -4.1447 C.ar    1  UNL1        0.0702
      5 C         -27.2829   48.9361   -2.9263 C.ar    1  UNL1        0.1149
      6 N         -28.0880   48.4938   -1.9248 N.ar    1  UNL1       -0.2279
      7 C         -29.6557   47.7931    0.4074 C.3     1  UNL1        0.1318
      8 C         -30.2849   46.5790    1.1331 C.3     1  UNL1        0.0311
      9 C         -30.5984   45.4285    0.1499 C.3     1  UNL1        0.0475
     10 C         -31.5707   45.8904   -0.9741 C.3     1  UNL1        0.0252
     11 C         -31.5840   47.4144   -1.1774 C.3     1  UNL1        0.0926
     12 N         -30.2452   47.9699   -0.9359 N.pl3   1  UNL1       -0.2883
     13 C         -29.1598   49.2113    2.5607 C.3     1  UNL1        0.0740
     14 C         -29.8371   49.0476    1.2319 C.2     1  UNL1        0.1689
     15 O         -30.5594   49.9439    0.8218 O.2     1  UNL1       -0.2943
     16 C         -29.3049   44.8261   -0.4313 C.3     1  UNL1        0.2054
     17 O         -29.3903   44.7779   -1.8540 O.3     1  UNL1       -0.4755
     18 C         -28.3645   45.1743   -2.7248 C.ar    1  UNL1        0.1388
     19 C         -28.6586   45.2829   -4.0877 C.ar    1  UNL1        0.0369
     20 C         -27.6741   45.6773   -4.9952 C.ar    1  UNL1        0.0033
     21 C         -26.3832   45.9678   -4.5489 C.ar    1  UNL1        0.0066
     22 C         -26.0629   45.8653   -3.1845 C.ar    1  UNL1        0.0785
     23 C         -27.0610   45.4658   -2.2754 C.ar    1  UNL1        0.0433
     24 C         -24.6937   46.1750   -2.7155 C.2     1  UNL1        0.3381
     25 O         -23.8208   45.2675   -2.6473 O.2     1  UNL1       -0.2451
     26 O         -24.3560   47.4739   -2.3439 O.3     1  UNL1       -0.4771
     27 H         -23.4219   47.6967   -2.0214 H       1  UNL1        0.2954
     28 N         -27.0258   49.8606   -5.2164 N.am    1  UNL1       -0.2766
     29 C         -26.9823   49.2884   -6.5354 C.2     1  UNL1        0.2839
     30 O         -27.6277   48.2386   -6.7980 O.2     1  UNL1       -0.2665
     31 H         -26.4785   50.7282   -5.0268 H       1  UNL1        0.1553
     32 C         -26.1688   49.8949   -7.6035 C.ar    1  UNL1        0.1946
     33 O         -26.5477   49.8881   -8.8694 O.2     1  UNL1       -0.4492
     34 C         -25.6197   50.4919   -9.5710 C.ar    1  UNL1        0.1452
     35 C         -25.6018   50.7046  -10.9450 C.ar    1  UNL1        0.0375
     36 C         -24.4979   51.3807  -11.4937 C.ar    1  UNL1        0.0031
     37 C         -23.4347   51.8327  -10.6655 C.ar    1  UNL1        0.0002
     38 C         -23.4939   51.5970   -9.2709 C.ar    1  UNL1        0.0028
     39 C         -24.6031   50.9214   -8.7622 C.ar    1  UNL1        0.0337
     40 C         -24.9431   50.5598   -7.4743 C.ar    1  UNL1        0.0202
     41 C         -24.1707   50.8650   -6.2268 C.3     1  UNL1        0.0345
     42 C         -22.2736   52.5457  -11.2560 C.ar    1  UNL1        0.0000
     43 C         -20.9631   52.2530  -10.8325 C.ar    1  UNL1        0.0000
     44 C         -19.8716   52.9257  -11.3903 C.ar    1  UNL1        0.0000
     45 C         -20.0742   53.8950  -12.3752 C.ar    1  UNL1        0.0000
     46 C         -21.3692   54.1939  -12.8043 C.ar    1  UNL1        0.0000
     47 C         -22.4645   53.5249  -12.2494 C.ar    1  UNL1        0.0000
@<TRIPOS>BOND
     1    13    14    1
     2    14    15    2
     3    14     7    1
     4     7     8    1
     5     8     9    1
     6     9    16    1
     7    16    17    1
     8    17    18    1
     9    18    19   ar
    10    19    20   ar
    11    20    21   ar
    12    21    22   ar
    13    22    24    1
    14    24    25    2
    15    24    26    1
    16    22    23   ar
    17     9    10    1
    18    10    11    1
    19    11    12    1
    20    12     1    1
    21     1     2   ar
    22     2     3   ar
    23     3     4   ar
    24     4    28    1
    25    28    29   am
    26    29    30    2
    27    29    32    1
    28    32    33   ar
    29    33    34   ar
    30    34    35   ar
    31    35    36   ar
    32    36    37   ar
    33    37    42    1
    34    42    43   ar
    35    43    44   ar
    36    44    45   ar
    37    45    46   ar
    38    46    47   ar
    39    37    38   ar
    40    38    39   ar
    41    39    40   ar
    42    40    41    1
    43     4     5   ar
    44     5     6   ar
    45    12     7    1
    46     6     1   ar
    47    23    18   ar
    48    40    32   ar
    49    39    34   ar
    50    47    42   ar
    51    26    27    1
    52    28    31    1
@<TRIPOS>MOLECULE
*****
 47 52 0 0 0
SMALL
GASTEIGER

@<TRIPOS>ATOM
      1 C         -28.2974   47.1294  -10.0240 C.ar    1  UNL1        0.1320
      2 C         -28.5551   48.4493  -10.4319 C.ar    1  UNL1        0.0356
      3 C         -27.5784   49.4299  -10.2548 C.ar    1  UNL1        0.0191
      4 C         -26.3404   49.1003   -9.6927 C.ar    1  UNL1        0.0702
      5 C         -26.1249   47.7773   -9.2782 C.ar    1  UNL1        0.1149
      6 N         -27.0930   46.8401   -9.4553 N.ar    1  UNL1       -0.2279
      7 C         -30.7281   46.4123  -10.2577 C.3     1  UNL1        0.1318
      8 C         -31.5836   45.3230   -9.5663 C.3     1  UNL1        0.0311
      9 C         -30.8797   44.7582   -8.3116 C.3     1  UNL1        0.0475
     10 C         -29.4928   44.1469   -8.6648 C.3     1  UNL1        0.0252
     11 C         -28.9126   44.6793   -9.9854 C.3     1  UNL1        0.0926
     12 N         -29.2892   46.0872  -10.1735 N.pl3   1  UNL1       -0.2883
     13 C         -31.5831   47.9002  -12.2449 C.3     1  UNL1        0.0740
     14 C         -31.1491   46.5708  -11.7013 C.2     1  UNL1        0.1689
     15 O         -31.1528   45.5991  -12.4424 O.2     1  UNL1       -0.2943
     16 C         -30.7635   45.8291   -7.2101 C.3     1  UNL1        0.2054
     17 O         -29.3893   46.0936   -6.9353 O.3     1  UNL1       -0.4755
     18 C         -28.9335   47.0408   -6.0066 C.ar    1  UNL1        0.1388
     19 C         -29.1314   46.7822   -4.6465 C.ar    1  UNL1        0.0369
     20 C         -28.6930   47.6910   -3.6820 C.ar    1  UNL1        0.0033
     21 C         -28.0510   48.8696   -4.0677 C.ar    1  UNL1        0.0066
     22 C         -27.8411   49.1523   -5.4281 C.ar    1  UNL1        0.0785
     23 C         -28.2872   48.2313   -6.3951 C.ar    1  UNL1        0.0433
     24 C         -27.1594   50.4022   -5.8327 C.2     1  UNL1        0.3381
     25 O         -26.6790   50.5217   -6.9924 O.2     1  UNL1       -0.2451
     26 O         -27.0417   51.4598   -4.9345 O.3     1  UNL1       -0.4771
     27 H         -26.5769   52.3196   -5.2010 H       1  UNL1        0.2954
     28 N         -25.3563   50.1284   -9.4933 N.am    1  UNL1       -0.2766
     29 C         -24.5499   50.6881  -10.5449 C.2     1  UNL1        0.2839
     30 O         -24.6268   50.2359  -11.7184 O.2     1  UNL1       -0.2665
     31 H         -25.2691   50.5205   -8.5306 H       1  UNL1        0.1553
     32 C         -23.6001   51.7820  -10.2777 C.ar    1  UNL1        0.1946
     33 O         -23.2412   52.6483  -11.2088 O.2     1  UNL1       -0.4492
     34 C         -22.3898   53.4877  -10.6715 C.ar    1  UNL1        0.1452
     35 C         -21.7509   54.5566  -11.2900 C.ar    1  UNL1        0.0375
     36 C         -20.8689   55.3340  -10.5187 C.ar    1  UNL1        0.0031
     37 C         -20.6407   55.0337   -9.1482 C.ar    1  UNL1        0.0002
     38 C         -21.3136   53.9372   -8.5574 C.ar    1  UNL1        0.0028
     39 C         -22.1793   53.1874   -9.3534 C.ar    1  UNL1        0.0337
     40 C         -22.9674   52.0910   -9.0671 C.ar    1  UNL1        0.0202
     41 C         -23.1242   51.4267   -7.7329 C.3     1  UNL1        0.0345
     42 C         -19.7069   55.8615   -8.3433 C.ar    1  UNL1        0.0000
     43 C         -18.8158   55.2576   -7.4356 C.ar    1  UNL1        0.0000
     44 C         -17.9375   56.0394   -6.6790 C.ar    1  UNL1        0.0000
     45 C         -17.9372   57.4290   -6.8195 C.ar    1  UNL1        0.0000
     46 C         -18.8158   58.0399   -7.7170 C.ar    1  UNL1        0.0000
     47 C         -19.6969   57.2631   -8.4756 C.ar    1  UNL1        0.0000
@<TRIPOS>BOND
     1    13    14    1
     2    14    15    2
     3    14     7    1
     4     7     8    1
     5     8     9    1
     6     9    16    1
     7    16    17    1
     8    17    18    1
     9    18    19   ar
    10    19    20   ar
    11    20    21   ar
    12    21    22   ar
    13    22    24    1
    14    24    25    2
    15    24    26    1
    16    22    23   ar
    17     9    10    1
    18    10    11    1
    19    11    12    1
    20    12     1    1
    21     1     2   ar
    22     2     3   ar
    23     3     4   ar
    24     4    28    1
    25    28    29   am
    26    29    30    2
    27    29    32    1
    28    32    33   ar
    29    33    34   ar
    30    34    35   ar
    31    35    36   ar
    32    36    37   ar
    33    37    42    1
    34    42    43   ar
    35    43    44   ar
    36    44    45   ar
    37    45    46   ar
    38    46    47   ar
    39    37    38   ar
    40    38    39   ar
    41    39    40   ar
    42    40    41    1
    43     4     5   ar
    44     5     6   ar
    45    12     7    1
    46     6     1   ar
    47    23    18   ar
    48    40    32   ar
    49    39    34   ar
    50    47    42   ar
    51    26    27    1
    52    28    31    1
@<TRIPOS>MOLECULE
*****
 47 52 0 0 0
SMALL
GASTEIGER

@<TRIPOS>ATOM
      1 C         -23.4004   51.5589   -9.9473 C.ar    1  UNL1        0.1320
      2 C         -23.0009   51.4205   -8.6071 C.ar    1  UNL1        0.0356
      3 C         -23.9021   50.9217   -7.6659 C.ar    1  UNL1        0.0191
      4 C         -25.1911   50.5416   -8.0545 C.ar    1  UNL1        0.0702
      5 C         -25.5629   50.7124   -9.3967 C.ar    1  UNL1        0.1149
      6 N         -24.6702   51.2057  -10.2948 N.ar    1  UNL1       -0.2279
      7 C         -21.1329   52.5142  -10.5973 C.3     1  UNL1        0.1318
      8 C         -20.7000   53.7403  -11.4374 C.3     1  UNL1        0.0311
      9 C         -21.8833   54.7012  -11.6929 C.3     1  UNL1        0.0475
     10 C         -23.0494   53.9828  -12.4319 C.3     1  UNL1        0.0252
     11 C         -23.0152   52.4532  -12.2785 C.3     1  UNL1        0.0926
     12 N         -22.5029   52.0882  -10.9505 N.pl3   1  UNL1       -0.2883
     13 C         -18.6767   51.5962  -10.7313 C.3     1  UNL1        0.0740
     14 C         -20.1592   51.3743  -10.7943 C.2     1  UNL1        0.1689
     15 O         -20.5796   50.2502  -11.0245 O.2     1  UNL1       -0.2943
     16 C         -22.3604   55.3561  -10.3825 C.3     1  UNL1        0.2054
     17 O         -21.4019   56.3174   -9.9452 O.3     1  UNL1       -0.4755
     18 C         -20.4149   56.0716   -8.9793 C.ar    1  UNL1        0.1388
     19 C         -19.8456   57.1667   -8.3216 C.ar    1  UNL1        0.0369
     20 C         -18.8623   56.9757   -7.3494 C.ar    1  UNL1        0.0033
     21 C         -18.4373   55.6859   -7.0241 C.ar    1  UNL1        0.0066
     22 C         -18.9936   54.5697   -7.6715 C.ar    1  UNL1        0.0785
     23 C         -19.9841   54.7704   -8.6517 C.ar    1  UNL1        0.0433
     24 C         -18.5409   53.2043   -7.3231 C.2     1  UNL1        0.3381
     25 O         -17.4477   52.7603   -7.7679 O.2     1  UNL1       -0.2451
     26 O         -19.3198   52.3954   -6.4996 O.3     1  UNL1       -0.4771
     27 H         -19.0196   51.4593   -6.2550 H       1  UNL1        0.2954
     28 N         -26.1146   50.0550   -7.0667 N.am    1  UNL1       -0.2766
     29 C         -26.2390   48.6721   -6.6905 C.2     1  UNL1        0.2839
     30 O         -25.5660   47.7862   -7.2818 O.2     1  UNL1       -0.2665
     31 H         -26.6869   50.7663   -6.5621 H       1  UNL1        0.1553
     32 C         -27.1677   48.2516   -5.6271 C.ar    1  UNL1        0.1946
     33 O         -28.1316   47.3727   -5.8387 O.2     1  UNL1       -0.4492
     34 C         -28.7847   47.2123   -4.7136 C.ar    1  UNL1        0.1452
     35 C         -29.8794   46.3872   -4.4811 C.ar    1  UNL1        0.0375
     36 C         -30.4290   46.3690   -3.1870 C.ar    1  UNL1        0.0031
     37 C         -29.8786   47.1706   -2.1501 C.ar    1  UNL1        0.0002
     38 C         -28.7623   47.9951   -2.4296 C.ar    1  UNL1        0.0028
     39 C         -28.2451   47.9891   -3.7249 C.ar    1  UNL1        0.0337
     40 C         -27.1810   48.6636   -4.2887 C.ar    1  UNL1        0.0202
     41 C         -26.2381   49.5926   -3.5860 C.3     1  UNL1        0.0345
     42 C         -30.4672   47.1436   -0.7871 C.ar    1  UNL1        0.0000
     43 C         -30.8732   48.3366   -0.1590 C.ar    1  UNL1        0.0000
     44 C         -31.4273   48.3082    1.1245 C.ar    1  UNL1        0.0000
     45 C         -31.5834   47.0925    1.7940 C.ar    1  UNL1        0.0000
     46 C         -31.1853   45.9022    1.1815 C.ar    1  UNL1        0.0000
     47 C         -30.6298   45.9246   -0.1015 C.ar    1  UNL1        0.0000
@<TRIPOS>BOND
     1    13    14    1
     2    14    15    2
     3    14     7    1
     4     7     8    1
     5     8     9    1
     6     9    16    1
     7    16    17    1
     8    17    18    1
     9    18    19   ar
    10    19    20   ar
    11    20    21   ar
    12    21    22   ar
    13    22    24    1
    14    24    25    2
    15    24    26    1
    16    22    23   ar
    17     9    10    1
    18    10    11    1
    19    11    12    1
    20    12     1    1
    21     1     2   ar
    22     2     3   ar
    23     3     4   ar
    24     4    28    1
    25    28    29   am
    26    29    30    2
    27    29    32    1
    28    32    33   ar
    29    33    34   ar
    30    34    35   ar
    31    35    36   ar
    32    36    37   ar
    33    37    42    1
    34    42    43   ar
    35    43    44   ar
    36    44    45   ar
    37    45    46   ar
    38    46    47   ar
    39    37    38   ar
    40    38    39   ar
    41    39    40   ar
    42    40    41    1
    43     4     5   ar
    44     5     6   ar
    45    12     7    1
    46     6     1   ar
    47    23    18   ar
    48    40    32   ar
    49    39    34   ar
    50    47    42   ar
    51    26    27    1
    52    28    31    1
