@<TRIPOS>MOLECULE
*****
 54 60 0 0 0
SMALL
GASTEIGER

@<TRIPOS>ATOM
      1 N         -30.1627   48.2629   -2.6637 N.3     1  UNL1       -0.2638
      2 C         -31.5474   47.8549   -2.9331 C.3     1  UNL1        0.0739
      3 C         -31.5069   46.4930   -3.6259 C.3     1  UNL1        0.0374
      4 C         -30.0228   46.2077   -3.9123 C.3     1  UNL1        0.1239
      5 C         -29.3431   47.5547   -3.6503 C.3     1  UNL1        0.0913
      6 C         -29.7745   45.7680   -5.3428 C.2     1  UNL1        0.2359
      7 O         -29.2507   44.6457   -5.5841 O.2     1  UNL1       -0.2739
      8 N         -30.0222   46.6838   -6.4215 N.am    1  UNL1       -0.2832
      9 H         -29.9594   47.7070   -6.2174 H       1  UNL1        0.1549
     10 C         -30.3518   46.2798   -7.7601 C.ar    1  UNL1        0.0505
     11 C         -30.8208   44.9671   -8.0424 C.ar    1  UNL1        0.0162
     12 C         -31.1992   44.6048   -9.3483 C.ar    1  UNL1        0.0198
     13 C         -31.0897   45.5696  -10.3447 C.ar    1  UNL1        0.0754
     14 N         -31.4303   45.4670  -11.6388 N.ar    1  UNL1       -0.2757
     15 N         -31.1987   46.6336  -12.2296 N.ar    1  UNL1       -0.1726
     16 C         -30.6967   47.4890  -11.3048 C.ar    1  UNL1        0.1036
     17 C         -30.6304   46.8293  -10.0874 C.ar    1  UNL1        0.0376
     18 C         -30.2803   47.2330   -8.7989 C.ar    1  UNL1        0.0177
     19 H         -31.8240   44.6275  -12.1187 H       1  UNL1        0.1889
     20 C         -30.3054   48.8805  -11.6051 C.ar    1  UNL1        0.0388
     21 C         -29.5952   49.6551  -10.6755 C.ar    1  UNL1        0.0079
     22 C         -29.2502   50.9720  -10.9795 C.ar    1  UNL1        0.0578
     23 C         -29.6093   51.5082  -12.2168 C.ar    1  UNL1        0.2247
     24 N         -30.2741   50.7344  -13.1199 N.ar    1  UNL1       -0.2101
     25 C         -30.6124   49.4455  -12.8515 C.ar    1  UNL1        0.1036
     26 O         -29.2831   52.8375  -12.5072 O.3     1  UNL1       -0.4640
     27 C         -30.1532   53.9381  -12.2474 C.3     1  UNL1        0.1678
     28 C         -30.1388   54.8767  -13.4518 C.3     1  UNL1        0.0473
     29 C         -31.5750   53.4402  -11.9725 C.3     1  UNL1        0.0473
     30 S         -29.3598   44.8643   -2.8259 S.3     1  UNL1       -0.1308
     31 C         -30.7518   44.6554   -1.6619 C.3     1  UNL1        0.0696
     32 C         -29.9989   49.7283   -2.7349 C.3     1  UNL1        0.1587
     33 C         -27.1025   51.1412   -6.8611 C.2     1  UNL1       -0.0231
     34 C         -28.3186   51.6659   -7.0857 C.2     1  UNL1       -0.0089
     35 C         -29.4918   51.4541   -6.1601 C.3     1  UNL1        0.1196
     36 N         -29.2482   50.4427   -5.1154 N.am    1  UNL1       -0.2740
     37 C         -30.2865   50.2295   -4.1298 C.2     1  UNL1        0.2423
     38 O         -31.4719   50.5669   -4.3998 O.2     1  UNL1       -0.2733
     39 C         -28.1056   49.5277   -5.2563 C.3     1  UNL1        0.0984
     40 C         -26.8543   50.3203   -5.6251 C.3     1  UNL1        0.0476
     41 C         -23.8344   51.9696   -9.5377 C.ar    1  UNL1        0.0375
     42 C         -25.0992   52.5384   -9.7608 C.ar    1  UNL1        0.0031
     43 C         -26.1628   52.2661   -8.8948 C.ar    1  UNL1       -0.0002
     44 C         -25.9868   51.3998   -7.8033 C.ar    1  UNL1       -0.0042
     45 C         -24.7271   50.8142   -7.5927 C.ar    1  UNL1       -0.0002
     46 C         -23.6599   51.1021   -8.4472 C.ar    1  UNL1        0.0031
     47 C         -20.8420   52.2413  -11.4171 C.ar    1  UNL1        0.1379
     48 N         -21.5478   51.5835  -10.4744 N.ar    1  UNL1       -0.2106
     49 C         -22.6915   52.3046  -10.4137 C.ar    1  UNL1        0.1828
     50 N         -22.6909   53.3463  -11.2707 N.ar    1  UNL1       -0.1487
     51 N         -21.5350   53.2902  -11.9051 N.ar    1  UNL1       -0.2343
     52 C         -21.1169   54.2634  -12.9079 C.3     1  UNL1        0.1551
     53 C         -18.7915   50.9281  -10.8193 C.3     1  UNL1        0.0084
     54 C         -19.4675   51.8211  -11.8568 C.3     1  UNL1        0.0654
@<TRIPOS>BOND
     1    53    54    1
     2    54    47    1
     3    47    48   ar
     4    48    49   ar
     5    49    41    1
     6    41    42   ar
     7    42    43   ar
     8    43    44   ar
     9    44    33    1
    10    33    34    2
    11    34    35    1
    12    35    36    1
    13    36    37   am
    14    37    38    2
    15    37    32    1
    16    32     1    1
    17     1     2    1
    18     2     3    1
    19     3     4    1
    20     4    30    1
    21    30    31    1
    22     4     6    1
    23     6     7    2
    24     6     8   am
    25     8    10    1
    26    10    11   ar
    27    11    12   ar
    28    12    13   ar
    29    13    14   ar
    30    14    15   ar
    31    15    16   ar
    32    16    20    1
    33    20    21   ar
    34    21    22   ar
    35    22    23   ar
    36    23    26    1
    37    26    27    1
    38    27    28    1
    39    27    29    1
    40    23    24   ar
    41    24    25   ar
    42    16    17   ar
    43    17    18   ar
    44     4     5    1
    45    36    39    1
    46    39    40    1
    47    44    45   ar
    48    45    46   ar
    49    49    50   ar
    50    50    51   ar
    51    51    52    1
    52    51    47   ar
    53    46    41   ar
    54    40    33    1
    55     5     1    1
    56    18    10   ar
    57    17    13   ar
    58    25    20   ar
    59     8     9    1
    60    14    19    1
@<TRIPOS>MOLECULE
*****
 54 60 0 0 0
SMALL
GASTEIGER

@<TRIPOS>ATOM
      1 N         -24.5082   51.3528   -9.7655 N.3     1  UNL1       -0.2638
      2 C         -25.3580   52.5484   -9.6962 C.3     1  UNL1        0.0739
      3 C         -26.5684   52.2115   -8.8256 C.3     1  UNL1        0.0374
      4 C         -26.4764   50.7033   -8.5381 C.3     1  UNL1        0.1239
      5 C         -25.4009   50.2185   -9.5144 C.3     1  UNL1        0.0913
      6 C         -27.7819   49.9752   -8.7970 C.2     1  UNL1        0.2359
      7 O         -28.6989   50.5266   -9.4658 O.2     1  UNL1       -0.2739
      8 N         -28.0226   48.7035   -8.1739 N.am    1  UNL1       -0.2832
      9 H         -27.5311   48.4998   -7.2741 H       1  UNL1        0.1549
     10 C         -28.8944   47.6963   -8.7116 C.ar    1  UNL1        0.0505
     11 C         -29.4763   46.7004   -7.8794 C.ar    1  UNL1        0.0162
     12 C         -30.3773   45.7584   -8.4089 C.ar    1  UNL1        0.0198
     13 C         -30.6675   45.8334   -9.7675 C.ar    1  UNL1        0.0754
     14 N         -31.5218   45.0784  -10.4756 N.ar    1  UNL1       -0.2757
     15 N         -31.5254   45.5104  -11.7314 N.ar    1  UNL1       -0.1726
     16 C         -30.6576   46.5479  -11.8290 C.ar    1  UNL1        0.1036
     17 C         -30.1064   46.7780  -10.5781 C.ar    1  UNL1        0.0376
     18 C         -29.2371   47.7486  -10.0800 C.ar    1  UNL1        0.0177
     19 H         -32.1045   44.2889  -10.1188 H       1  UNL1        0.1889
     20 C         -30.3880   47.2729  -13.0865 C.ar    1  UNL1        0.0388
     21 C         -30.5134   48.6681  -13.1651 C.ar    1  UNL1        0.0079
     22 C         -30.2662   49.3267  -14.3696 C.ar    1  UNL1        0.0578
     23 C         -29.8857   48.5882  -15.4909 C.ar    1  UNL1        0.2247
     24 N         -29.7409   47.2371  -15.3914 N.ar    1  UNL1       -0.2101
     25 C         -29.9658   46.5736  -14.2265 C.ar    1  UNL1        0.1036
     26 O         -29.6634   49.2505  -16.7032 O.3     1  UNL1       -0.4640
     27 C         -28.6807   48.8450  -17.6551 C.3     1  UNL1        0.1678
     28 C         -29.3179   47.8669  -18.6395 C.3     1  UNL1        0.0473
     29 C         -28.1214   50.0632  -18.3955 C.3     1  UNL1        0.0473
     30 S         -26.0264   50.3666   -6.7749 S.3     1  UNL1       -0.1308
     31 C         -27.1675   51.5036   -5.9137 C.3     1  UNL1        0.0696
     32 C         -23.8097   51.2507  -11.0621 C.3     1  UNL1        0.1587
     33 C         -20.6634   55.2082   -9.7022 C.2     1  UNL1       -0.0231
     34 C         -19.8620   54.3048  -10.2905 C.2     1  UNL1       -0.0089
     35 C         -20.3539   52.9689  -10.7922 C.3     1  UNL1        0.1196
     36 N         -21.7332   52.6515  -10.3791 N.am    1  UNL1       -0.2740
     37 C         -22.3213   51.4277  -10.8807 C.2     1  UNL1        0.2423
     38 O         -21.5662   50.4997  -11.2812 O.2     1  UNL1       -0.2733
     39 C         -22.3545   53.4302   -9.2974 C.3     1  UNL1        0.0984
     40 C         -22.1313   54.9202   -9.5424 C.3     1  UNL1        0.0476
     41 C         -19.1760   59.0089   -8.3335 C.ar    1  UNL1        0.0375
     42 C         -19.7041   58.8753   -9.6282 C.ar    1  UNL1        0.0031
     43 C         -20.1830   57.6401  -10.0756 C.ar    1  UNL1       -0.0002
     44 C         -20.1196   56.5097   -9.2443 C.ar    1  UNL1       -0.0042
     45 C         -19.5717   56.6390   -7.9570 C.ar    1  UNL1       -0.0002
     46 C         -19.1113   57.8778   -7.5037 C.ar    1  UNL1        0.0031
     47 C         -18.6374   62.1633   -6.8104 C.ar    1  UNL1        0.1379
     48 N         -19.4610   61.1148   -7.0149 N.ar    1  UNL1       -0.2106
     49 C         -18.7272   60.3261   -7.8341 C.ar    1  UNL1        0.1828
     50 N         -17.5201   60.8576   -8.1170 N.ar    1  UNL1       -0.1487
     51 N         -17.4668   62.0009   -7.4602 N.ar    1  UNL1       -0.2343
     52 C         -16.3304   62.9134   -7.5193 C.3     1  UNL1        0.1551
     53 C         -19.9308   62.9336   -4.8054 C.3     1  UNL1        0.0084
     54 C         -19.0023   63.3387   -5.9475 C.3     1  UNL1        0.0654
@<TRIPOS>BOND
     1    53    54    1
     2    54    47    1
     3    47    48   ar
     4    48    49   ar
     5    49    41    1
     6    41    42   ar
     7    42    43   ar
     8    43    44   ar
     9    44    33    1
    10    33    34    2
    11    34    35    1
    12    35    36    1
    13    36    37   am
    14    37    38    2
    15    37    32    1
    16    32     1    1
    17     1     2    1
    18     2     3    1
    19     3     4    1
    20     4    30    1
    21    30    31    1
    22     4     6    1
    23     6     7    2
    24     6     8   am
    25     8    10    1
    26    10    11   ar
    27    11    12   ar
    28    12    13   ar
    29    13    14   ar
    30    14    15   ar
    31    15    16   ar
    32    16    20    1
    33    20    21   ar
    34    21    22   ar
    35    22    23   ar
    36    23    26    1
    37    26    27    1
    38    27    28    1
    39    27    29    1
    40    23    24   ar
    41    24    25   ar
    42    16    17   ar
    43    17    18   ar
    44     4     5    1
    45    36    39    1
    46    39    40    1
    47    44    45   ar
    48    45    46   ar
    49    49    50   ar
    50    50    51   ar
    51    51    52    1
    52    51    47   ar
    53    46    41   ar
    54    40    33    1
    55     5     1    1
    56    18    10   ar
    57    17    13   ar
    58    25    20   ar
    59     8     9    1
    60    14    19    1
@<TRIPOS>MOLECULE
*****
 54 60 0 0 0
SMALL
GASTEIGER

@<TRIPOS>ATOM
      1 N         -24.7386   51.4440  -10.2394 N.3     1  UNL1       -0.2638
      2 C         -26.1126   51.7368  -10.6669 C.3     1  UNL1        0.0739
      3 C         -27.0629   51.0137   -9.7126 C.3     1  UNL1        0.0374
      4 C         -26.1744   50.1356   -8.8151 C.3     1  UNL1        0.1239
      5 C         -24.8127   50.1730   -9.5145 C.3     1  UNL1        0.0913
      6 C         -26.6707   48.7055   -8.7162 C.2     1  UNL1        0.2359
      7 O         -25.9888   47.8334   -8.1105 O.2     1  UNL1       -0.2739
      8 N         -27.8601   48.3151   -9.4207 N.am    1  UNL1       -0.2832
      9 H         -28.1179   48.8530  -10.2791 H       1  UNL1        0.1549
     10 C         -28.7158   47.2340   -9.0174 C.ar    1  UNL1        0.0505
     11 C         -29.1912   46.2770   -9.9561 C.ar    1  UNL1        0.0162
     12 C         -29.9773   45.1882   -9.5363 C.ar    1  UNL1        0.0198
     13 C         -30.2754   45.0899   -8.1809 C.ar    1  UNL1        0.0754
     14 N         -30.9627   44.1243   -7.5513 N.ar    1  UNL1       -0.2757
     15 N         -30.9802   44.3980   -6.2518 N.ar    1  UNL1       -0.1726
     16 C         -30.3036   45.5557   -6.0495 C.ar    1  UNL1        0.1036
     17 C         -29.8338   46.0086   -7.2725 C.ar    1  UNL1        0.0376
     18 C         -29.0235   47.0801   -7.6483 C.ar    1  UNL1        0.0177
     19 H         -31.4062   43.2852   -7.9862 H       1  UNL1        0.1889
     20 C         -30.1290   46.1798   -4.7230 C.ar    1  UNL1        0.0388
     21 C         -30.5607   47.4908   -4.4714 C.ar    1  UNL1        0.0079
     22 C         -30.3707   48.0612   -3.2128 C.ar    1  UNL1        0.0578
     23 C         -29.7567   47.3152   -2.2060 C.ar    1  UNL1        0.2247
     24 N         -29.3683   46.0337   -2.4575 N.ar    1  UNL1       -0.2101
     25 C         -29.5518   45.4519   -3.6723 C.ar    1  UNL1        0.1036
     26 O         -29.5455   47.9004   -0.9527 O.3     1  UNL1       -0.4640
     27 C         -30.3826   47.6656    0.1788 C.3     1  UNL1        0.1678
     28 C         -30.2550   46.2019    0.5947 C.3     1  UNL1        0.0473
     29 C         -29.9869   48.5883    1.3351 C.3     1  UNL1        0.0473
     30 S         -26.0921   50.7853   -7.0842 S.3     1  UNL1       -0.1308
     31 C         -27.8293   51.2901   -6.8316 C.3     1  UNL1        0.0696
     32 C         -23.8073   51.3927  -11.3837 C.3     1  UNL1        0.1587
     33 C         -20.6903   55.2533   -9.7133 C.2     1  UNL1       -0.0231
     34 C         -19.8625   54.2503  -10.0496 C.2     1  UNL1       -0.0089
     35 C         -20.3496   52.9072  -10.5364 C.3     1  UNL1        0.1196
     36 N         -21.8049   52.7173  -10.3957 N.am    1  UNL1       -0.2740
     37 C         -22.3767   51.4916  -10.9112 C.2     1  UNL1        0.2423
     38 O         -21.6340   50.4845  -11.0721 O.2     1  UNL1       -0.2733
     39 C         -22.5665   53.6311   -9.5311 C.3     1  UNL1        0.0984
     40 C         -22.1787   55.0747   -9.8403 C.3     1  UNL1        0.0476
     41 C         -19.2019   59.0527   -8.3420 C.ar    1  UNL1        0.0375
     42 C         -19.7718   58.9305   -9.6199 C.ar    1  UNL1        0.0031
     43 C         -20.2511   57.6958  -10.0684 C.ar    1  UNL1       -0.0002
     44 C         -20.1466   56.5550   -9.2556 C.ar    1  UNL1       -0.0042
     45 C         -19.5571   56.6732   -7.9857 C.ar    1  UNL1       -0.0002
     46 C         -19.0961   57.9112   -7.5308 C.ar    1  UNL1        0.0031
     47 C         -18.6762   62.2190   -6.8393 C.ar    1  UNL1        0.1379
     48 N         -19.5099   61.1841   -7.0703 N.ar    1  UNL1       -0.2106
     49 C         -18.7519   60.3683   -7.8394 C.ar    1  UNL1        0.1828
     50 N         -17.5213   60.8711   -8.0679 N.ar    1  UNL1       -0.1487
     51 N         -17.4778   62.0232   -7.4258 N.ar    1  UNL1       -0.2343
     52 C         -16.3212   62.9118   -7.4400 C.3     1  UNL1        0.1551
     53 C         -19.9549   63.0257   -4.8390 C.3     1  UNL1        0.0084
     54 C         -19.0602   63.4148   -6.0133 C.3     1  UNL1        0.0654
@<TRIPOS>BOND
     1    53    54    1
     2    54    47    1
     3    47    48   ar
     4    48    49   ar
     5    49    41    1
     6    41    42   ar
     7    42    43   ar
     8    43    44   ar
     9    44    33    1
    10    33    34    2
    11    34    35    1
    12    35    36    1
    13    36    37   am
    14    37    38    2
    15    37    32    1
    16    32     1    1
    17     1     2    1
    18     2     3    1
    19     3     4    1
    20     4    30    1
    21    30    31    1
    22     4     6    1
    23     6     7    2
    24     6     8   am
    25     8    10    1
    26    10    11   ar
    27    11    12   ar
    28    12    13   ar
    29    13    14   ar
    30    14    15   ar
    31    15    16   ar
    32    16    20    1
    33    20    21   ar
    34    21    22   ar
    35    22    23   ar
    36    23    26    1
    37    26    27    1
    38    27    28    1
    39    27    29    1
    40    23    24   ar
    41    24    25   ar
    42    16    17   ar
    43    17    18   ar
    44     4     5    1
    45    36    39    1
    46    39    40    1
    47    44    45   ar
    48    45    46   ar
    49    49    50   ar
    50    50    51   ar
    51    51    52    1
    52    51    47   ar
    53    46    41   ar
    54    40    33    1
    55     5     1    1
    56    18    10   ar
    57    17    13   ar
    58    25    20   ar
    59     8     9    1
    60    14    19    1
@<TRIPOS>MOLECULE
*****
 54 60 0 0 0
SMALL
GASTEIGER

@<TRIPOS>ATOM
      1 N         -23.9803   51.0860   -8.6205 N.3     1  UNL1       -0.2638
      2 C         -24.9474   51.4283   -9.6713 C.3     1  UNL1        0.0739
      3 C         -26.3434   51.0863   -9.1510 C.3     1  UNL1        0.0374
      4 C         -26.1297   50.3573   -7.8135 C.3     1  UNL1        0.1239
      5 C         -24.6288   50.0536   -7.8079 C.3     1  UNL1        0.0913
      6 C         -26.9228   49.0679   -7.7139 C.2     1  UNL1        0.2359
      7 O         -27.4234   48.7095   -6.6125 O.2     1  UNL1       -0.2739
      8 N         -26.9987   48.1902   -8.8485 N.am    1  UNL1       -0.2832
      9 H         -26.2162   48.2187   -9.5411 H       1  UNL1        0.1549
     10 C         -28.0827   47.2790   -9.0897 C.ar    1  UNL1        0.0505
     11 C         -28.5774   46.4291   -8.0621 C.ar    1  UNL1        0.0162
     12 C         -29.6801   45.5870   -8.2952 C.ar    1  UNL1        0.0198
     13 C         -30.2571   45.6119   -9.5610 C.ar    1  UNL1        0.0754
     14 N         -31.3324   44.9363   -9.9952 N.ar    1  UNL1       -0.2757
     15 N         -31.5664   45.2815  -11.2561 N.ar    1  UNL1       -0.1726
     16 C         -30.6253   46.1815  -11.6347 C.ar    1  UNL1        0.1036
     17 C         -29.7838   46.4153  -10.5582 C.ar    1  UNL1        0.0376
     18 C         -28.7154   47.2881  -10.3517 C.ar    1  UNL1        0.0177
     19 H         -31.9099   44.2593   -9.4492 H       1  UNL1        0.1889
     20 C         -30.5605   46.7786  -12.9833 C.ar    1  UNL1        0.0388
     21 C         -30.2511   46.0026  -14.1104 C.ar    1  UNL1        0.0079
     22 C         -30.1828   46.5950  -15.3714 C.ar    1  UNL1        0.0578
     23 C         -30.4328   47.9616  -15.5028 C.ar    1  UNL1        0.2247
     24 N         -30.7596   48.6963  -14.4029 N.ar    1  UNL1       -0.2101
     25 C         -30.8428   48.1403  -13.1653 C.ar    1  UNL1        0.1036
     26 O         -30.3383   48.5562  -16.7658 O.3     1  UNL1       -0.4640
     27 C         -29.1116   48.7000  -17.4803 C.3     1  UNL1        0.1678
     28 C         -29.4187   49.1459  -18.9081 C.3     1  UNL1        0.0473
     29 C         -28.2052   49.7188  -16.7835 C.3     1  UNL1        0.0473
     30 S         -26.6396   51.4015   -6.3732 S.3     1  UNL1       -0.1308
     31 C         -28.3336   51.8640   -6.8762 C.3     1  UNL1        0.0696
     32 C         -22.6917   50.6390   -9.1854 C.3     1  UNL1        0.1587
     33 C         -20.6336   55.4530   -9.1982 C.2     1  UNL1       -0.0231
     34 C         -21.0725   55.2522  -10.4518 C.2     1  UNL1       -0.0089
     35 C         -21.6951   53.9558  -10.9098 C.3     1  UNL1        0.1196
     36 N         -21.5736   52.8607   -9.9301 N.am    1  UNL1       -0.2740
     37 C         -22.2127   51.6010  -10.2460 C.2     1  UNL1        0.2423
     38 O         -22.4773   51.3284  -11.4491 O.2     1  UNL1       -0.2733
     39 C         -20.6186   52.9951   -8.8199 C.3     1  UNL1        0.0984
     40 C         -20.7772   54.3661   -8.1680 C.3     1  UNL1        0.0476
     41 C         -19.0129   59.2652   -8.0272 C.ar    1  UNL1        0.0375
     42 C         -19.5528   59.0852   -9.3113 C.ar    1  UNL1        0.0031
     43 C         -20.0751   57.8460   -9.6946 C.ar    1  UNL1       -0.0002
     44 C         -20.0443   56.7568   -8.8081 C.ar    1  UNL1       -0.0042
     45 C         -19.4848   56.9315   -7.5312 C.ar    1  UNL1       -0.0002
     46 C         -18.9809   58.1753   -7.1422 C.ar    1  UNL1        0.0031
     47 C         -18.3172   62.4347   -6.6021 C.ar    1  UNL1        0.1379
     48 N         -19.1494   61.3772   -6.6945 N.ar    1  UNL1       -0.2106
     49 C         -18.5177   60.5899   -7.5960 C.ar    1  UNL1        0.1828
     50 N         -17.3618   61.1308   -8.0330 N.ar    1  UNL1       -0.1487
     51 N         -17.2372   62.2790   -7.3945 N.ar    1  UNL1       -0.2343
     52 C         -16.1268   63.2016   -7.6025 C.3     1  UNL1        0.1551
     53 C         -19.9004   63.4628   -4.9519 C.3     1  UNL1        0.0084
     54 C         -18.5815   63.6124   -5.7062 C.3     1  UNL1        0.0654
@<TRIPOS>BOND
     1    53    54    1
     2    54    47    1
     3    47    48   ar
     4    48    49   ar
     5    49    41    1
     6    41    42   ar
     7    42    43   ar
     8    43    44   ar
     9    44    33    1
    10    33    34    2
    11    34    35    1
    12    35    36    1
    13    36    37   am
    14    37    38    2
    15    37    32    1
    16    32     1    1
    17     1     2    1
    18     2     3    1
    19     3     4    1
    20     4    30    1
    21    30    31    1
    22     4     6    1
    23     6     7    2
    24     6     8   am
    25     8    10    1
    26    10    11   ar
    27    11    12   ar
    28    12    13   ar
    29    13    14   ar
    30    14    15   ar
    31    15    16   ar
    32    16    20    1
    33    20    21   ar
    34    21    22   ar
    35    22    23   ar
    36    23    26    1
    37    26    27    1
    38    27    28    1
    39    27    29    1
    40    23    24   ar
    41    24    25   ar
    42    16    17   ar
    43    17    18   ar
    44     4     5    1
    45    36    39    1
    46    39    40    1
    47    44    45   ar
    48    45    46   ar
    49    49    50   ar
    50    50    51   ar
    51    51    52    1
    52    51    47   ar
    53    46    41   ar
    54    40    33    1
    55     5     1    1
    56    18    10   ar
    57    17    13   ar
    58    25    20   ar
    59     8     9    1
    60    14    19    1
@<TRIPOS>MOLECULE
*****
 54 60 0 0 0
SMALL
GASTEIGER

@<TRIPOS>ATOM
      1 N         -23.9920   51.1991   -9.1711 N.3     1  UNL1       -0.2638
      2 C         -24.5862   51.4080  -10.4976 C.3     1  UNL1        0.0739
      3 C         -26.0852   51.1291  -10.3873 C.3     1  UNL1        0.0374
      4 C         -26.3086   50.5700   -8.9719 C.3     1  UNL1        0.1239
      5 C         -24.8901   50.2726   -8.4772 C.3     1  UNL1        0.0913
      6 C         -27.1395   49.3007   -8.9660 C.2     1  UNL1        0.2359
      7 O         -26.8819   48.3652   -9.7727 O.2     1  UNL1       -0.2739
      8 N         -28.3003   49.2145   -8.1244 N.am    1  UNL1       -0.2832
      9 H         -28.7843   50.1047   -7.8673 H       1  UNL1        0.1549
     10 C         -28.8345   47.9824   -7.6142 C.ar    1  UNL1        0.0505
     11 C         -28.9665   46.8340   -8.4429 C.ar    1  UNL1        0.0162
     12 C         -29.4327   45.6163   -7.9140 C.ar    1  UNL1        0.0198
     13 C         -29.7642   45.5824   -6.5632 C.ar    1  UNL1        0.0754
     14 N         -30.1823   44.5330   -5.8385 N.ar    1  UNL1       -0.2757
     15 N         -30.3478   44.9278   -4.5813 N.ar    1  UNL1       -0.1726
     16 C         -30.0399   46.2462   -4.5032 C.ar    1  UNL1        0.1036
     17 C         -29.6520   46.6813   -5.7609 C.ar    1  UNL1        0.0376
     18 C         -29.1602   47.8942   -6.2435 C.ar    1  UNL1        0.0177
     19 H         -30.3447   43.5600   -6.1803 H       1  UNL1        0.1889
     20 C         -30.1225   47.0328   -3.2566 C.ar    1  UNL1        0.0388
     21 C         -28.9680   47.4081   -2.5533 C.ar    1  UNL1        0.0079
     22 C         -29.0753   48.1394   -1.3703 C.ar    1  UNL1        0.0578
     23 C         -30.3378   48.5009   -0.8983 C.ar    1  UNL1        0.2247
     24 N         -31.4480   48.1532   -1.6073 N.ar    1  UNL1       -0.2101
     25 C         -31.3691   47.4499   -2.7679 C.ar    1  UNL1        0.1036
     26 O         -30.4416   49.2126    0.3019 O.3     1  UNL1       -0.4640
     27 C         -31.2353   48.7836    1.4074 C.3     1  UNL1        0.1678
     28 C         -30.9123   47.3226    1.7124 C.3     1  UNL1        0.0473
     29 C         -30.9612   49.6605    2.6325 C.3     1  UNL1        0.0473
     30 S         -27.1906   51.7817   -7.8862 S.3     1  UNL1       -0.1308
     31 C         -26.6183   51.2364   -6.2395 C.3     1  UNL1        0.0696
     32 C         -22.6096   50.6891   -9.2635 C.3     1  UNL1        0.1587
     33 C         -20.3857   55.4288   -9.2339 C.2     1  UNL1       -0.0231
     34 C         -20.4671   55.0839  -10.5296 C.2     1  UNL1       -0.0089
     35 C         -21.0030   53.7523  -10.9964 C.3     1  UNL1        0.1196
     36 N         -21.2158   52.7833   -9.9058 N.am    1  UNL1       -0.2740
     37 C         -21.8051   51.5057  -10.2461 C.2     1  UNL1        0.2423
     38 O         -21.7373   51.0927  -11.4363 O.2     1  UNL1       -0.2733
     39 C         -20.6029   53.0356   -8.5932 C.3     1  UNL1        0.0984
     40 C         -20.8665   54.4786   -8.1712 C.3     1  UNL1        0.0476
     41 C         -18.9569   59.3141   -8.0533 C.ar    1  UNL1        0.0375
     42 C         -19.5402   59.1236   -9.3168 C.ar    1  UNL1        0.0031
     43 C         -20.0002   57.8610   -9.7034 C.ar    1  UNL1       -0.0002
     44 C         -19.8626   56.7600   -8.8420 C.ar    1  UNL1       -0.0042
     45 C         -19.2598   56.9465   -7.5867 C.ar    1  UNL1       -0.0002
     46 C         -18.8180   58.2124   -7.1936 C.ar    1  UNL1        0.0031
     47 C         -18.4577   62.5382   -6.6691 C.ar    1  UNL1        0.1379
     48 N         -19.2625   61.4657   -6.8155 N.ar    1  UNL1       -0.2106
     49 C         -18.5271   60.6594   -7.6160 C.ar    1  UNL1        0.1828
     50 N         -17.3369   61.2035   -7.9430 N.ar    1  UNL1       -0.1487
     51 N         -17.2960   62.3734   -7.3338 N.ar    1  UNL1       -0.2343
     52 C         -16.1803   63.3057   -7.4511 C.3     1  UNL1        0.1551
     53 C         -19.7775   63.3718   -4.7070 C.3     1  UNL1        0.0084
     54 C         -18.8318   63.7401   -5.8475 C.3     1  UNL1        0.0654
@<TRIPOS>BOND
     1    53    54    1
     2    54    47    1
     3    47    48   ar
     4    48    49   ar
     5    49    41    1
     6    41    42   ar
     7    42    43   ar
     8    43    44   ar
     9    44    33    1
    10    33    34    2
    11    34    35    1
    12    35    36    1
    13    36    37   am
    14    37    38    2
    15    37    32    1
    16    32     1    1
    17     1     2    1
    18     2     3    1
    19     3     4    1
    20     4    30    1
    21    30    31    1
    22     4     6    1
    23     6     7    2
    24     6     8   am
    25     8    10    1
    26    10    11   ar
    27    11    12   ar
    28    12    13   ar
    29    13    14   ar
    30    14    15   ar
    31    15    16   ar
    32    16    20    1
    33    20    21   ar
    34    21    22   ar
    35    22    23   ar
    36    23    26    1
    37    26    27    1
    38    27    28    1
    39    27    29    1
    40    23    24   ar
    41    24    25   ar
    42    16    17   ar
    43    17    18   ar
    44     4     5    1
    45    36    39    1
    46    39    40    1
    47    44    45   ar
    48    45    46   ar
    49    49    50   ar
    50    50    51   ar
    51    51    52    1
    52    51    47   ar
    53    46    41   ar
    54    40    33    1
    55     5     1    1
    56    18    10   ar
    57    17    13   ar
    58    25    20   ar
    59     8     9    1
    60    14    19    1
