@<TRIPOS>MOLECULE
*****
 47 52 0 0 0
SMALL
GASTEIGER

@<TRIPOS>ATOM
      1 C          60.6535   86.1460   12.5005 C.ar    1  UNL1        0.0702
      2 C          60.0053   86.5745   11.3322 C.ar    1  UNL1        0.0191
      3 C          59.2084   85.6877   10.6063 C.ar    1  UNL1        0.0356
      4 C          59.0686   84.3580   11.0431 C.ar    1  UNL1        0.1318
      5 N          59.7271   83.9643   12.1695 N.ar    1  UNL1       -0.2279
      6 C          60.5078   84.8101   12.8920 C.ar    1  UNL1        0.1149
      7 N          58.2608   83.4064   10.3126 N.pl3   1  UNL1       -0.2932
      8 C          57.9151   82.1051   10.9037 C.3     1  UNL1        0.0923
      9 C          58.4050   80.9566   10.0076 C.3     1  UNL1        0.0252
     10 C          58.2641   81.2483    8.4857 C.3     1  UNL1        0.0472
     11 C          57.3203   82.4429    8.2163 C.3     1  UNL1        0.0252
     12 C          57.7888   83.7095    8.9505 C.3     1  UNL1        0.0923
     13 C          59.6457   81.4500    7.8326 C.3     1  UNL1        0.2054
     14 O          60.6644   81.4762    8.8304 O.3     1  UNL1       -0.4755
     15 C          61.4826   82.5826    9.1008 C.ar    1  UNL1        0.1388
     16 C          61.4264   83.7659    8.3412 C.ar    1  UNL1        0.0369
     17 C          62.2646   84.8387    8.6508 C.ar    1  UNL1        0.0033
     18 C          63.1636   84.7456    9.7155 C.ar    1  UNL1        0.0066
     19 C          63.2336   83.5724   10.4856 C.ar    1  UNL1        0.0785
     20 C          62.3856   82.4954   10.1676 C.ar    1  UNL1        0.0433
     21 C          64.1868   83.4756   11.6132 C.2     1  UNL1        0.3381
     22 O          64.0330   84.1872   12.6427 O.2     1  UNL1       -0.2451
     23 O          65.2645   82.5962   11.5478 O.3     1  UNL1       -0.4771
     24 H          65.9229   82.5221   12.3141 H       1  UNL1        0.2954
     25 C          61.2400   88.4199   13.4650 C.2     1  UNL1        0.2839
     26 O          60.0981   88.8910   13.2152 O.2     1  UNL1       -0.2665
     27 N          61.5034   87.0221   13.2608 N.am    1  UNL1       -0.2766
     28 H          62.3205   86.5978   13.7556 H       1  UNL1        0.1553
     29 C          63.8769   89.4883   12.0037 C.3     1  UNL1        0.0345
     30 C          63.4063   89.8243   13.3904 C.ar    1  UNL1        0.0200
     31 C          62.2882   89.2865   14.0404 C.ar    1  UNL1        0.1946
     32 O          62.2762   89.6658   15.3009 O.2     1  UNL1       -0.4492
     33 C          63.3121   90.4388   15.5037 C.ar    1  UNL1        0.1450
     34 C          63.6794   91.0155   16.7099 C.ar    1  UNL1        0.0375
     35 C          64.8573   91.7677   16.7495 C.ar    1  UNL1        0.0029
     36 C          65.6296   91.9764   15.5813 C.ar    1  UNL1       -0.0014
     37 C          65.1818   91.4556   14.3248 C.ar    1  UNL1        0.0097
     38 C          64.0425   90.6142   14.3505 C.ar    1  UNL1        0.0320
     39 C          66.9071   92.7140   15.7218 C.ar    1  UNL1       -0.0002
     40 C          67.0523   93.9968   15.1662 C.ar    1  UNL1       -0.0000
     41 C          68.2615   94.6870   15.2939 C.ar    1  UNL1       -0.0000
     42 C          69.3354   94.1000   15.9686 C.ar    1  UNL1       -0.0000
     43 C          69.2032   92.8199   16.5134 C.ar    1  UNL1       -0.0000
     44 C          67.9958   92.1260   16.3882 C.ar    1  UNL1       -0.0000
     45 C          65.8614   91.8281   13.0208 C.3     1  UNL1        0.1637
     46 O          65.2024   92.8983   12.4002 O.3     1  UNL1       -0.3772
     47 H          65.7583   93.1514   11.6179 H       1  UNL1        0.2109
@<TRIPOS>BOND
     1    29    30    1
     2    30    31   ar
     3    31    25    1
     4    25    26    2
     5    25    27   am
     6    27     1    1
     7     1     2   ar
     8     2     3   ar
     9     3     4   ar
    10     4     7    1
    11     7     8    1
    12     8     9    1
    13     9    10    1
    14    10    13    1
    15    13    14    1
    16    14    15    1
    17    15    16   ar
    18    16    17   ar
    19    17    18   ar
    20    18    19   ar
    21    19    21    1
    22    21    22    2
    23    21    23    1
    24    19    20   ar
    25    10    11    1
    26    11    12    1
    27     4     5   ar
    28     5     6   ar
    29    31    32   ar
    30    32    33   ar
    31    33    34   ar
    32    34    35   ar
    33    35    36   ar
    34    36    39    1
    35    39    40   ar
    36    40    41   ar
    37    41    42   ar
    38    42    43   ar
    39    43    44   ar
    40    36    37   ar
    41    37    45    1
    42    45    46    1
    43    37    38   ar
    44    38    30   ar
    45     6     1   ar
    46    38    33   ar
    47    12     7    1
    48    44    39   ar
    49    20    15   ar
    50    27    28    1
    51    23    24    1
    52    46    47    1
@<TRIPOS>MOLECULE
*****
 47 52 0 0 0
SMALL
GASTEIGER

@<TRIPOS>ATOM
      1 C          60.6486   86.0778   12.6223 C.ar    1  UNL1        0.0702
      2 C          59.7537   86.5453   11.6480 C.ar    1  UNL1        0.0191
      3 C          58.9680   85.6448   10.9269 C.ar    1  UNL1        0.0356
      4 C          59.0868   84.2647   11.1709 C.ar    1  UNL1        0.1318
      5 N          59.9798   83.8382   12.1080 N.ar    1  UNL1       -0.2279
      6 C          60.7546   84.6965   12.8220 C.ar    1  UNL1        0.1149
      7 N          58.2984   83.2996   10.4369 N.pl3   1  UNL1       -0.2932
      8 C          57.8887   82.0335   11.0626 C.3     1  UNL1        0.0923
      9 C          58.4001   80.8362   10.2458 C.3     1  UNL1        0.0252
     10 C          58.3517   81.0635    8.7073 C.3     1  UNL1        0.0472
     11 C          57.4536   82.2652    8.3337 C.3     1  UNL1        0.0252
     12 C          57.9108   83.5525    9.0385 C.3     1  UNL1        0.0923
     13 C          59.7721   81.2061    8.1259 C.3     1  UNL1        0.2054
     14 O          60.7417   81.1412    9.1698 O.3     1  UNL1       -0.4755
     15 C          61.6753   82.1495    9.4499 C.ar    1  UNL1        0.1388
     16 C          62.8334   81.9140   10.2139 C.ar    1  UNL1        0.0369
     17 C          63.7310   82.9535   10.4658 C.ar    1  UNL1        0.0033
     18 C          63.4864   84.2328    9.9616 C.ar    1  UNL1        0.0066
     19 C          62.3358   84.4868    9.1963 C.ar    1  UNL1        0.0785
     20 C          61.4358   83.4341    8.9465 C.ar    1  UNL1        0.0433
     21 C          62.0784   85.8428    8.6631 C.2     1  UNL1        0.3381
     22 O          62.5746   86.8558    9.2267 O.2     1  UNL1       -0.2451
     23 O          61.2842   86.0133    7.5320 O.3     1  UNL1       -0.4771
     24 H          61.1017   86.9372    7.1588 H       1  UNL1        0.2954
     25 C          61.2305   88.3747   13.5335 C.2     1  UNL1        0.2839
     26 O          60.0915   88.8408   13.2623 O.2     1  UNL1       -0.2665
     27 N          61.4935   86.9718   13.3672 N.am    1  UNL1       -0.2766
     28 H          62.3058   86.5591   13.8795 H       1  UNL1        0.1553
     29 C          63.8897   89.3883   12.0735 C.3     1  UNL1        0.0345
     30 C          63.4035   89.7678   13.4436 C.ar    1  UNL1        0.0200
     31 C          62.2752   89.2542   14.0956 C.ar    1  UNL1        0.1946
     32 O          62.2493   89.6714   15.3438 O.2     1  UNL1       -0.4492
     33 C          63.2859   90.4462   15.5360 C.ar    1  UNL1        0.1450
     34 C          63.6408   91.0576   16.7287 C.ar    1  UNL1        0.0375
     35 C          64.8213   91.8062   16.7603 C.ar    1  UNL1        0.0029
     36 C          65.6087   91.9765   15.5960 C.ar    1  UNL1       -0.0014
     37 C          65.1742   91.4197   14.3503 C.ar    1  UNL1        0.0097
     38 C          64.0311   90.5840   14.3873 C.ar    1  UNL1        0.0320
     39 C          66.8875   92.7132   15.7300 C.ar    1  UNL1       -0.0002
     40 C          67.0208   94.0084   15.2010 C.ar    1  UNL1       -0.0000
     41 C          68.2311   94.6978   15.3224 C.ar    1  UNL1       -0.0000
     42 C          69.3179   94.0977   15.9641 C.ar    1  UNL1       -0.0000
     43 C          69.1974   92.8054   16.4822 C.ar    1  UNL1       -0.0000
     44 C          67.9889   92.1122   16.3632 C.ar    1  UNL1       -0.0000
     45 C          65.8714   91.7501   13.0442 C.3     1  UNL1        0.1637
     46 O          65.3389   92.9138   12.4724 O.3     1  UNL1       -0.3772
     47 H          65.9078   93.1232   11.6865 H       1  UNL1        0.2109
@<TRIPOS>BOND
     1    29    30    1
     2    30    31   ar
     3    31    25    1
     4    25    26    2
     5    25    27   am
     6    27     1    1
     7     1     2   ar
     8     2     3   ar
     9     3     4   ar
    10     4     7    1
    11     7     8    1
    12     8     9    1
    13     9    10    1
    14    10    13    1
    15    13    14    1
    16    14    15    1
    17    15    16   ar
    18    16    17   ar
    19    17    18   ar
    20    18    19   ar
    21    19    21    1
    22    21    22    2
    23    21    23    1
    24    19    20   ar
    25    10    11    1
    26    11    12    1
    27     4     5   ar
    28     5     6   ar
    29    31    32   ar
    30    32    33   ar
    31    33    34   ar
    32    34    35   ar
    33    35    36   ar
    34    36    39    1
    35    39    40   ar
    36    40    41   ar
    37    41    42   ar
    38    42    43   ar
    39    43    44   ar
    40    36    37   ar
    41    37    45    1
    42    45    46    1
    43    37    38   ar
    44    38    30   ar
    45     6     1   ar
    46    38    33   ar
    47    12     7    1
    48    44    39   ar
    49    20    15   ar
    50    27    28    1
    51    23    24    1
    52    46    47    1
@<TRIPOS>MOLECULE
*****
 47 52 0 0 0
SMALL
GASTEIGER

@<TRIPOS>ATOM
      1 C          63.2763   89.2977   14.6965 C.ar    1  UNL1        0.0702
      2 C          63.0302   90.1834   15.7564 C.ar    1  UNL1        0.0191
      3 C          64.0038   91.1075   16.1392 C.ar    1  UNL1        0.0356
      4 C          65.2389   91.1381   15.4670 C.ar    1  UNL1        0.1318
      5 N          65.4580   90.2515   14.4554 N.ar    1  UNL1       -0.2279
      6 C          64.5249   89.3436   14.0656 C.ar    1  UNL1        0.1149
      7 N          66.2769   92.0732   15.8412 N.pl3   1  UNL1       -0.2932
      8 C          66.1547   93.5014   15.5129 C.3     1  UNL1        0.0923
      9 C          67.3471   93.9644   14.6608 C.3     1  UNL1        0.0252
     10 C          68.6990   93.3130   15.0721 C.3     1  UNL1        0.0472
     11 C          68.6166   92.6556   16.4690 C.3     1  UNL1        0.0252
     12 C          67.4908   91.6111   16.5361 C.3     1  UNL1        0.0923
     13 C          69.1815   92.3187   13.9977 C.3     1  UNL1        0.2054
     14 O          68.0680   91.6529   13.4054 O.3     1  UNL1       -0.4755
     15 C          67.3714   92.1181   12.2805 C.ar    1  UNL1        0.1388
     16 C          65.9781   92.3155   12.2845 C.ar    1  UNL1        0.0369
     17 C          65.3320   92.7790   11.1368 C.ar    1  UNL1        0.0033
     18 C          66.0630   93.0500    9.9780 C.ar    1  UNL1        0.0066
     19 C          67.4550   92.8596    9.9553 C.ar    1  UNL1        0.0785
     20 C          68.0992   92.3923   11.1159 C.ar    1  UNL1        0.0433
     21 C          68.2277   93.1472    8.7266 C.2     1  UNL1        0.3381
     22 O          68.2975   94.3229    8.2763 O.2     1  UNL1       -0.2451
     23 O          68.8862   92.1203    8.0550 O.3     1  UNL1       -0.4771
     24 H          69.4179   92.3063    7.2130 H       1  UNL1        0.2954
     25 C          62.1210   87.0513   14.9489 C.2     1  UNL1        0.2839
     26 O          62.6110   86.8564   16.0935 O.2     1  UNL1       -0.2665
     27 N          62.3090   88.3144   14.2899 N.am    1  UNL1       -0.2766
     28 H          61.6542   88.5678   13.5156 H       1  UNL1        0.1553
     29 C          63.0711   84.1680   13.9417 C.3     1  UNL1        0.0345
     30 C          61.6725   84.7169   13.9389 C.ar    1  UNL1        0.0200
     31 C          61.2878   86.0105   14.3137 C.ar    1  UNL1        0.1946
     32 O          60.0199   86.2051   14.0183 O.2     1  UNL1       -0.4492
     33 C          59.5504   85.1032   13.4919 C.ar    1  UNL1        0.1450
     34 C          58.2641   84.9087   13.0123 C.ar    1  UNL1        0.0375
     35 C          57.9581   83.6764   12.4268 C.ar    1  UNL1        0.0029
     36 C          58.9187   82.6380   12.3675 C.ar    1  UNL1       -0.0014
     37 C          60.2106   82.8236   12.9567 C.ar    1  UNL1        0.0097
     38 C          60.5113   84.1192   13.4440 C.ar    1  UNL1        0.0320
     39 C          58.5447   81.3922   11.6575 C.ar    1  UNL1       -0.0002
     40 C          58.0325   81.4455   10.3498 C.ar    1  UNL1       -0.0000
     41 C          57.6733   80.2689    9.6855 C.ar    1  UNL1       -0.0000
     42 C          57.8145   79.0333   10.3229 C.ar    1  UNL1       -0.0000
     43 C          58.3116   78.9726   11.6276 C.ar    1  UNL1       -0.0000
     44 C          58.6722   80.1466   12.2959 C.ar    1  UNL1       -0.0000
     45 C          61.1921   81.6760   13.1012 C.3     1  UNL1        0.1637
     46 O          61.2015   81.1871   14.4149 O.3     1  UNL1       -0.3772
     47 H          61.7802   80.3808   14.4076 H       1  UNL1        0.2109
@<TRIPOS>BOND
     1    29    30    1
     2    30    31   ar
     3    31    25    1
     4    25    26    2
     5    25    27   am
     6    27     1    1
     7     1     2   ar
     8     2     3   ar
     9     3     4   ar
    10     4     7    1
    11     7     8    1
    12     8     9    1
    13     9    10    1
    14    10    13    1
    15    13    14    1
    16    14    15    1
    17    15    16   ar
    18    16    17   ar
    19    17    18   ar
    20    18    19   ar
    21    19    21    1
    22    21    22    2
    23    21    23    1
    24    19    20   ar
    25    10    11    1
    26    11    12    1
    27     4     5   ar
    28     5     6   ar
    29    31    32   ar
    30    32    33   ar
    31    33    34   ar
    32    34    35   ar
    33    35    36   ar
    34    36    39    1
    35    39    40   ar
    36    40    41   ar
    37    41    42   ar
    38    42    43   ar
    39    43    44   ar
    40    36    37   ar
    41    37    45    1
    42    45    46    1
    43    37    38   ar
    44    38    30   ar
    45     6     1   ar
    46    38    33   ar
    47    12     7    1
    48    44    39   ar
    49    20    15   ar
    50    27    28    1
    51    23    24    1
    52    46    47    1
@<TRIPOS>MOLECULE
*****
 47 52 0 0 0
SMALL
GASTEIGER

@<TRIPOS>ATOM
      1 C          60.8523   86.9462   11.4605 C.ar    1  UNL1        0.0702
      2 C          60.0380   87.2352   10.3551 C.ar    1  UNL1        0.0191
      3 C          59.1700   86.2656    9.8503 C.ar    1  UNL1        0.0356
      4 C          59.1247   84.9921   10.4457 C.ar    1  UNL1        0.1318
      5 N          59.9427   84.7330   11.5046 N.ar    1  UNL1       -0.2279
      6 C          60.7951   85.6613   12.0129 C.ar    1  UNL1        0.1149
      7 N          58.2469   83.9575    9.9449 N.pl3   1  UNL1       -0.2932
      8 C          57.9311   82.7788   10.7656 C.3     1  UNL1        0.0923
      9 C          58.3305   81.4876   10.0338 C.3     1  UNL1        0.0252
     10 C          58.0715   81.5332    8.5002 C.3     1  UNL1        0.0472
     11 C          57.1265   82.6940    8.1131 C.3     1  UNL1        0.0252
     12 C          57.6710   84.0493    8.5923 C.3     1  UNL1        0.0923
     13 C          59.3986   81.5888    7.7182 C.3     1  UNL1        0.2054
     14 O          60.5042   81.5236    8.6168 O.3     1  UNL1       -0.4755
     15 C          61.3906   82.5822    8.8630 C.ar    1  UNL1        0.1388
     16 C          61.4567   83.7186    8.0357 C.ar    1  UNL1        0.0369
     17 C          62.3587   84.7446    8.3239 C.ar    1  UNL1        0.0033
     18 C          63.2006   84.6508    9.4343 C.ar    1  UNL1        0.0066
     19 C          63.1486   83.5241   10.2722 C.ar    1  UNL1        0.0785
     20 C          62.2369   82.4941    9.9753 C.ar    1  UNL1        0.0433
     21 C          64.0415   83.4265   11.4480 C.2     1  UNL1        0.3381
     22 O          63.6594   83.8394   12.5765 O.2     1  UNL1       -0.2451
     23 O          65.3145   82.8769   11.3190 O.3     1  UNL1       -0.4771
     24 H          65.9337   82.8054   12.1176 H       1  UNL1        0.2954
     25 C          62.0013   89.2096   11.4232 C.2     1  UNL1        0.2839
     26 O          61.1894   89.6788   10.5812 O.2     1  UNL1       -0.2665
     27 N          61.7778   87.9094   11.9929 N.am    1  UNL1       -0.2766
     28 H          62.2595   87.6760   12.8907 H       1  UNL1        0.1553
     29 C          63.4555   89.0589   14.2680 C.3     1  UNL1        0.0345
     30 C          63.8378   89.9172   13.0956 C.ar    1  UNL1        0.0200
     31 C          63.1429   90.0251   11.8844 C.ar    1  UNL1        0.1946
     32 O          63.6554   90.9957   11.1577 O.2     1  UNL1       -0.4492
     33 C          64.6598   91.5123   11.8180 C.ar    1  UNL1        0.1450
     34 C          65.4421   92.5827   11.4122 C.ar    1  UNL1        0.0375
     35 C          66.4391   93.0373   12.2807 C.ar    1  UNL1        0.0029
     36 C          66.6770   92.3938   13.5192 C.ar    1  UNL1       -0.0014
     37 C          65.9248   91.2291   13.8768 C.ar    1  UNL1        0.0097
     38 C          64.8579   90.8680   13.0178 C.ar    1  UNL1        0.0320
     39 C          67.6942   92.9858   14.4197 C.ar    1  UNL1       -0.0002
     40 C          69.0510   92.6464   14.2804 C.ar    1  UNL1       -0.0000
     41 C          70.0072   93.2008   15.1365 C.ar    1  UNL1       -0.0000
     42 C          69.6166   94.0900   16.1414 C.ar    1  UNL1       -0.0000
     43 C          68.2680   94.4233   16.2944 C.ar    1  UNL1       -0.0000
     44 C          67.3082   93.8714   15.4404 C.ar    1  UNL1       -0.0000
     45 C          66.2844   90.3899   15.0882 C.3     1  UNL1        0.1637
     46 O          67.6734   90.3425   15.2705 O.3     1  UNL1       -0.3772
     47 H          67.8253   89.8707   16.1304 H       1  UNL1        0.2109
@<TRIPOS>BOND
     1    29    30    1
     2    30    31   ar
     3    31    25    1
     4    25    26    2
     5    25    27   am
     6    27     1    1
     7     1     2   ar
     8     2     3   ar
     9     3     4   ar
    10     4     7    1
    11     7     8    1
    12     8     9    1
    13     9    10    1
    14    10    13    1
    15    13    14    1
    16    14    15    1
    17    15    16   ar
    18    16    17   ar
    19    17    18   ar
    20    18    19   ar
    21    19    21    1
    22    21    22    2
    23    21    23    1
    24    19    20   ar
    25    10    11    1
    26    11    12    1
    27     4     5   ar
    28     5     6   ar
    29    31    32   ar
    30    32    33   ar
    31    33    34   ar
    32    34    35   ar
    33    35    36   ar
    34    36    39    1
    35    39    40   ar
    36    40    41   ar
    37    41    42   ar
    38    42    43   ar
    39    43    44   ar
    40    36    37   ar
    41    37    45    1
    42    45    46    1
    43    37    38   ar
    44    38    30   ar
    45     6     1   ar
    46    38    33   ar
    47    12     7    1
    48    44    39   ar
    49    20    15   ar
    50    27    28    1
    51    23    24    1
    52    46    47    1
@<TRIPOS>MOLECULE
*****
 47 52 0 0 0
SMALL
GASTEIGER

@<TRIPOS>ATOM
      1 C          62.6112   89.7537   11.1424 C.ar    1  UNL1        0.0702
      2 C          63.4512   90.1417   12.1972 C.ar    1  UNL1        0.0191
      3 C          64.2582   91.2736   12.0717 C.ar    1  UNL1        0.0356
      4 C          64.2366   92.0166   10.8776 C.ar    1  UNL1        0.1318
      5 N          63.4268   91.6039    9.8621 N.ar    1  UNL1       -0.2279
      6 C          62.6327   90.5056    9.9620 C.ar    1  UNL1        0.1149
      7 N          65.0661   93.1888   10.7050 N.pl3   1  UNL1       -0.2932
      8 C          65.4962   93.6133    9.3644 C.3     1  UNL1        0.0923
      9 C          67.0299   93.6689    9.2809 C.3     1  UNL1        0.0252
     10 C          67.7077   94.1896   10.5811 C.3     1  UNL1        0.0472
     11 C          66.6943   94.8925   11.5135 C.3     1  UNL1        0.0252
     12 C          65.5194   93.9677   11.8702 C.3     1  UNL1        0.0923
     13 C          68.4601   93.0546   11.3033 C.3     1  UNL1        0.2054
     14 O          67.5628   92.3140   12.1281 O.3     1  UNL1       -0.4755
     15 C          67.5760   92.3310   13.5304 C.ar    1  UNL1        0.1388
     16 C          68.7706   92.3710   14.2730 C.ar    1  UNL1        0.0369
     17 C          68.7290   92.3845   15.6685 C.ar    1  UNL1        0.0033
     18 C          67.5028   92.3589   16.3367 C.ar    1  UNL1        0.0066
     19 C          66.2996   92.3195   15.6122 C.ar    1  UNL1        0.0785
     20 C          66.3496   92.3061   14.2059 C.ar    1  UNL1        0.0433
     21 C          65.0016   92.2923   16.3220 C.2     1  UNL1        0.3381
     22 O          64.0430   91.6060   15.8747 O.2     1  UNL1       -0.2451
     23 O          64.8262   93.0257   17.4927 O.3     1  UNL1       -0.4771
     24 H          63.9416   93.0141   17.9864 H       1  UNL1        0.2954
     25 C          61.1812   88.1039   12.4378 C.2     1  UNL1        0.2839
     26 O          61.1210   88.8532   13.4494 O.2     1  UNL1       -0.2665
     27 N          61.7850   88.5795   11.2236 N.am    1  UNL1       -0.2766
     28 H          61.5501   88.0878   10.3317 H       1  UNL1        0.1553
     29 C          62.6804   85.2844   12.2551 C.3     1  UNL1        0.0345
     30 C          61.2126   85.5216   12.4714 C.ar    1  UNL1        0.0200
     31 C          60.5637   86.7629   12.4725 C.ar    1  UNL1        0.1946
     32 O          59.2596   86.5878   12.5116 O.2     1  UNL1       -0.4492
     33 C          59.0225   85.3020   12.5583 C.ar    1  UNL1        0.1450
     34 C          57.7735   84.7001   12.5725 C.ar    1  UNL1        0.0375
     35 C          57.7146   83.3032   12.5637 C.ar    1  UNL1        0.0029
     36 C          58.8957   82.5228   12.5883 C.ar    1  UNL1       -0.0014
     37 C          60.1743   83.1620   12.6733 C.ar    1  UNL1        0.0097
     38 C          60.1909   84.5749   12.5742 C.ar    1  UNL1        0.0320
     39 C          58.7519   81.0510   12.4928 C.ar    1  UNL1       -0.0002
     40 C          58.9395   80.2432   13.6275 C.ar    1  UNL1       -0.0000
     41 C          58.8107   78.8542   13.5324 C.ar    1  UNL1       -0.0000
     42 C          58.5023   78.2616   12.3050 C.ar    1  UNL1       -0.0000
     43 C          58.3261   79.0568   11.1694 C.ar    1  UNL1       -0.0000
     44 C          58.4539   80.4462   11.2597 C.ar    1  UNL1       -0.0000
     45 C          61.4460   82.3702   12.9113 C.3     1  UNL1        0.1637
     46 O          61.6859   82.2077   14.2827 O.3     1  UNL1       -0.3772
     47 H          62.4656   81.5983   14.3586 H       1  UNL1        0.2109
@<TRIPOS>BOND
     1    29    30    1
     2    30    31   ar
     3    31    25    1
     4    25    26    2
     5    25    27   am
     6    27     1    1
     7     1     2   ar
     8     2     3   ar
     9     3     4   ar
    10     4     7    1
    11     7     8    1
    12     8     9    1
    13     9    10    1
    14    10    13    1
    15    13    14    1
    16    14    15    1
    17    15    16   ar
    18    16    17   ar
    19    17    18   ar
    20    18    19   ar
    21    19    21    1
    22    21    22    2
    23    21    23    1
    24    19    20   ar
    25    10    11    1
    26    11    12    1
    27     4     5   ar
    28     5     6   ar
    29    31    32   ar
    30    32    33   ar
    31    33    34   ar
    32    34    35   ar
    33    35    36   ar
    34    36    39    1
    35    39    40   ar
    36    40    41   ar
    37    41    42   ar
    38    42    43   ar
    39    43    44   ar
    40    36    37   ar
    41    37    45    1
    42    45    46    1
    43    37    38   ar
    44    38    30   ar
    45     6     1   ar
    46    38    33   ar
    47    12     7    1
    48    44    39   ar
    49    20    15   ar
    50    27    28    1
    51    23    24    1
    52    46    47    1
