@<TRIPOS>MOLECULE
*****
 53 59 0 0 0
SMALL
GASTEIGER

@<TRIPOS>ATOM
      1 C          -5.2350   -8.4278   30.1450 C.3     1  UNL1        0.1239
      2 C          -4.9294   -7.7521   31.4858 C.3     1  UNL1        0.0374
      3 C          -6.1192   -6.8325   31.7467 C.3     1  UNL1        0.0739
      4 N          -6.8971   -6.7441   30.4992 N.3     1  UNL1       -0.2638
      5 C          -6.0724   -7.3551   29.4528 C.3     1  UNL1        0.0913
      6 C          -6.0573   -9.7023   30.2888 C.2     1  UNL1        0.2359
      7 O          -6.7784   -9.8833   31.3087 O.2     1  UNL1       -0.2739
      8 N          -5.9751  -10.7254   29.2811 N.am    1  UNL1       -0.2832
      9 H          -5.1615  -10.7043   28.6257 H       1  UNL1        0.1549
     10 C          -6.9012  -11.8192   29.1627 C.ar    1  UNL1        0.0505
     11 C          -8.0761  -11.8820   29.9606 C.ar    1  UNL1        0.0162
     12 C          -8.9801  -12.9509   29.8296 C.ar    1  UNL1        0.0198
     13 C          -8.6964  -13.9229   28.8763 C.ar    1  UNL1        0.0754
     14 N          -9.3865  -15.0409   28.6042 N.ar    1  UNL1       -0.2757
     15 N          -8.7540  -15.7025   27.6423 N.ar    1  UNL1       -0.1726
     16 C          -7.6530  -14.9946   27.2874 C.ar    1  UNL1        0.1036
     17 C          -7.5926  -13.8539   28.0743 C.ar    1  UNL1        0.0376
     18 C          -6.6609  -12.8215   28.1970 C.ar    1  UNL1        0.0177
     19 H         -10.2664  -15.3625   29.0654 H       1  UNL1        0.1889
     20 C          -6.7093  -15.4297   26.2375 C.ar    1  UNL1        0.0388
     21 C          -7.0232  -15.2332   24.8875 C.ar    1  UNL1        0.0079
     22 C          -6.1312  -15.6309   23.8898 C.ar    1  UNL1        0.0578
     23 C          -4.9036  -16.2172   24.2483 C.ar    1  UNL1        0.2247
     24 N          -4.6148  -16.3730   25.5687 N.ar    1  UNL1       -0.2101
     25 C          -5.4692  -15.9980   26.5567 C.ar    1  UNL1        0.1036
     26 O          -3.9403  -16.6535   23.3195 O.3     1  UNL1       -0.4640
     27 C          -3.5812  -16.0950   22.0478 C.3     1  UNL1        0.1678
     28 C          -4.5714  -16.4715   20.9399 C.3     1  UNL1        0.0473
     29 C          -2.1191  -16.3680   21.6772 C.3     1  UNL1        0.0473
     30 C          -4.4921   -9.2190   27.6038 C.3     1  UNL1        0.0696
     31 S          -3.6986   -8.7534   29.1803 S.3     1  UNL1       -0.1308
     32 C          -7.2881   -5.3647   30.1537 C.3     1  UNL1        0.1587
     33 C          -8.7862   -5.2237   30.1779 C.2     1  UNL1        0.2423
     34 O          -9.2808   -4.0755   30.3433 O.2     1  UNL1       -0.2733
     35 N          -9.6599   -6.3651   30.0413 N.am    1  UNL1       -0.2740
     36 C         -11.0410   -6.2842   30.5377 C.3     1  UNL1        0.1196
     37 C         -11.6152   -7.6398   30.8774 C.2     1  UNL1       -0.0089
     38 C         -10.9439   -8.7954   30.6994 C.2     1  UNL1       -0.0231
     39 C          -9.5142   -8.7812   30.2111 C.3     1  UNL1        0.0476
     40 C          -9.2576   -7.5751   29.3177 C.3     1  UNL1        0.0984
     41 C         -11.5695  -10.0923   31.0679 C.ar    1  UNL1       -0.0042
     42 C         -11.6780  -11.1330   30.1285 C.ar    1  UNL1       -0.0002
     43 C         -12.2457  -12.3586   30.4887 C.ar    1  UNL1        0.0031
     44 C         -12.7139  -12.5704   31.7960 C.ar    1  UNL1        0.0376
     45 C         -12.6050  -11.5324   32.7355 C.ar    1  UNL1        0.0031
     46 C         -12.0386  -10.3071   32.3749 C.ar    1  UNL1       -0.0002
     47 C         -13.3104  -13.8681   32.1787 C.ar    1  UNL1        0.1840
     48 N         -12.6975  -15.0614   31.9932 N.ar    1  UNL1       -0.1962
     49 C         -13.6051  -15.9263   32.4833 C.ar    1  UNL1        0.2224
     50 CL        -13.3697  -17.6649   32.5188 Cl      1  UNL1       -0.0413
     51 N         -14.6983  -15.2901   32.9356 N.ar    1  UNL1       -0.2215
     52 C         -15.8828  -15.8888   33.5366 C.3     1  UNL1        0.1564
     53 N         -14.5267  -13.9946   32.7512 N.ar    1  UNL1       -0.1478
@<TRIPOS>BOND
     1    30    31    1
     2     1    31    1
     3     1     6    1
     4     6     7    2
     5     6     8   am
     6     8    10    1
     7    10    11   ar
     8    11    12   ar
     9    12    13   ar
    10    13    14   ar
    11    14    15   ar
    12    15    16   ar
    13    16    20    1
    14    20    21   ar
    15    21    22   ar
    16    22    23   ar
    17    23    26    1
    18    26    27    1
    19    27    28    1
    20    27    29    1
    21    23    24   ar
    22    24    25   ar
    23    16    17   ar
    24    17    18   ar
    25     1     2    1
    26     2     3    1
    27     3     4    1
    28     4    32    1
    29    32    33    1
    30    33    34    2
    31    33    35   am
    32    35    36    1
    33    36    37    1
    34    37    38    2
    35    38    41    1
    36    41    42   ar
    37    42    43   ar
    38    43    44   ar
    39    44    47    1
    40    47    48   ar
    41    48    49   ar
    42    49    50    1
    43    49    51   ar
    44    51    52    1
    45    51    53   ar
    46    44    45   ar
    47    45    46   ar
    48    38    39    1
    49    39    40    1
    50     4     5    1
    51     5     1    1
    52    18    10   ar
    53    40    35    1
    54    17    13   ar
    55    46    41   ar
    56    25    20   ar
    57    53    47   ar
    58     8     9    1
    59    14    19    1
@<TRIPOS>MOLECULE
*****
 53 59 0 0 0
SMALL
GASTEIGER

@<TRIPOS>ATOM
      1 C          -5.3207   -7.5820   30.8095 C.3     1  UNL1        0.1239
      2 C          -4.7336   -7.7621   29.4058 C.3     1  UNL1        0.0374
      3 C          -5.2539   -9.1152   28.9288 C.3     1  UNL1        0.0739
      4 N          -5.8343   -9.8059   30.0931 N.3     1  UNL1       -0.2638
      5 C          -5.4387   -9.0319   31.2732 C.3     1  UNL1        0.0913
      6 C          -6.6999   -6.9347   30.8048 C.2     1  UNL1        0.2359
      7 O          -6.9057   -5.8791   30.1443 O.2     1  UNL1       -0.2739
      8 N          -7.7601   -7.5015   31.5946 N.am    1  UNL1       -0.2832
      9 H          -7.5014   -8.1654   32.3590 H       1  UNL1        0.1549
     10 C          -9.1488   -7.1577   31.4488 C.ar    1  UNL1        0.0505
     11 C          -9.5518   -5.8337   31.1239 C.ar    1  UNL1        0.0162
     12 C         -10.9120   -5.5106   30.9738 C.ar    1  UNL1        0.0198
     13 C         -11.8394   -6.5355   31.1267 C.ar    1  UNL1        0.0754
     14 N         -13.1775   -6.4559   31.0680 N.ar    1  UNL1       -0.2757
     15 N         -13.6816   -7.6626   31.2974 N.ar    1  UNL1       -0.1726
     16 C         -12.6546   -8.5262   31.4941 C.ar    1  UNL1        0.1036
     17 C         -11.4641   -7.8207   31.3983 C.ar    1  UNL1        0.0376
     18 C         -10.1248   -8.1701   31.5807 C.ar    1  UNL1        0.0177
     19 H         -13.7472   -5.5999   30.8866 H       1  UNL1        0.1889
     20 C         -12.8428   -9.9646   31.7727 C.ar    1  UNL1        0.0388
     21 C         -12.6095  -10.9099   30.7668 C.ar    1  UNL1        0.0079
     22 C         -12.7738  -12.2720   31.0258 C.ar    1  UNL1        0.0578
     23 C         -13.1602  -12.6935   32.3112 C.ar    1  UNL1        0.2247
     24 N         -13.3558  -11.7540   33.2757 N.ar    1  UNL1       -0.2101
     25 C         -13.2066  -10.4230   33.0456 C.ar    1  UNL1        0.1036
     26 O         -13.3547  -14.0403   32.6710 O.3     1  UNL1       -0.4640
     27 C         -12.3941  -15.0202   33.0893 C.3     1  UNL1        0.1678
     28 C         -12.7431  -16.4309   32.6018 C.3     1  UNL1        0.0473
     29 C         -12.0987  -14.9502   34.5918 C.3     1  UNL1        0.0473
     30 C          -4.5489   -7.5451   33.4625 C.3     1  UNL1        0.0696
     31 S          -4.1733   -6.6544   31.9142 S.3     1  UNL1       -0.1308
     32 C          -5.4194  -11.2172   30.1987 C.3     1  UNL1        0.1587
     33 C          -6.5285  -12.1245   29.7387 C.2     1  UNL1        0.2423
     34 O          -7.5208  -12.2959   30.4978 O.2     1  UNL1       -0.2733
     35 N          -6.4708  -12.8143   28.4715 N.am    1  UNL1       -0.2740
     36 C          -7.2852  -14.0203   28.2651 C.3     1  UNL1        0.1196
     37 C          -6.7100  -14.9343   27.2085 C.2     1  UNL1       -0.0089
     38 C          -5.5963  -14.6465   26.5053 C.2     1  UNL1       -0.0231
     39 C          -4.8045  -13.3954   26.8063 C.3     1  UNL1        0.0476
     40 C          -5.7125  -12.2914   27.3309 C.3     1  UNL1        0.0984
     41 C          -5.0821  -15.6007   25.4883 C.ar    1  UNL1       -0.0042
     42 C          -5.3210  -15.3922   24.1184 C.ar    1  UNL1       -0.0002
     43 C          -4.8138  -16.2806   23.1657 C.ar    1  UNL1        0.0031
     44 C          -4.0551  -17.3942   23.5623 C.ar    1  UNL1        0.0376
     45 C          -3.8148  -17.6030   24.9300 C.ar    1  UNL1        0.0031
     46 C          -4.3227  -16.7155   25.8821 C.ar    1  UNL1       -0.0002
     47 C          -3.5147  -18.3319   22.5547 C.ar    1  UNL1        0.1840
     48 N          -4.2878  -19.0617   21.7159 N.ar    1  UNL1       -0.1962
     49 C          -3.3704  -19.7453   21.0065 C.ar    1  UNL1        0.2224
     50 CL         -3.7770  -20.8828   19.7336 Cl      1  UNL1       -0.0413
     51 N          -2.1209  -19.4442   21.3968 N.ar    1  UNL1       -0.2215
     52 C          -0.8758  -19.9782   20.8608 C.3     1  UNL1        0.1564
     53 N          -2.1961  -18.5556   22.3696 N.ar    1  UNL1       -0.1478
@<TRIPOS>BOND
     1    30    31    1
     2     1    31    1
     3     1     6    1
     4     6     7    2
     5     6     8   am
     6     8    10    1
     7    10    11   ar
     8    11    12   ar
     9    12    13   ar
    10    13    14   ar
    11    14    15   ar
    12    15    16   ar
    13    16    20    1
    14    20    21   ar
    15    21    22   ar
    16    22    23   ar
    17    23    26    1
    18    26    27    1
    19    27    28    1
    20    27    29    1
    21    23    24   ar
    22    24    25   ar
    23    16    17   ar
    24    17    18   ar
    25     1     2    1
    26     2     3    1
    27     3     4    1
    28     4    32    1
    29    32    33    1
    30    33    34    2
    31    33    35   am
    32    35    36    1
    33    36    37    1
    34    37    38    2
    35    38    41    1
    36    41    42   ar
    37    42    43   ar
    38    43    44   ar
    39    44    47    1
    40    47    48   ar
    41    48    49   ar
    42    49    50    1
    43    49    51   ar
    44    51    52    1
    45    51    53   ar
    46    44    45   ar
    47    45    46   ar
    48    38    39    1
    49    39    40    1
    50     4     5    1
    51     5     1    1
    52    18    10   ar
    53    40    35    1
    54    17    13   ar
    55    46    41   ar
    56    25    20   ar
    57    53    47   ar
    58     8     9    1
    59    14    19    1
