@<TRIPOS>MOLECULE
*****
 52 57 0 0 0
SMALL
GASTEIGER

@<TRIPOS>ATOM
      1 C          59.9784   89.5564    7.7768 C.ar    1  UNL1        0.0502
      2 C          59.7647   88.1868    7.9926 C.ar    1  UNL1        0.0148
      3 C          59.7713   87.6658    9.2887 C.ar    1  UNL1        0.0080
      4 C          60.0038   88.5001   10.3962 C.ar    1  UNL1        0.0808
      5 C          60.2073   89.8786   10.1781 C.ar    1  UNL1        0.1457
      6 F          60.3745   90.7388   11.2135 F       1  UNL1       -0.2040
      7 C          60.1977   90.3954    8.8787 C.ar    1  UNL1        0.0443
      8 N          60.0762   91.6256    4.1205 N.pl3   1  UNL1       -0.2897
      9 C          58.8996   91.7621    4.9875 C.3     1  UNL1        0.1136
     10 C          58.7064   90.4907    5.8147 C.3     1  UNL1        0.1123
     11 N          59.9737   90.0998    6.4433 N.pl3   1  UNL1       -0.3040
     12 C          61.1526   89.9643    5.5800 C.3     1  UNL1        0.1123
     13 C          61.3437   91.2367    4.7538 C.3     1  UNL1        0.1136
     14 C          61.3234   93.0408    0.9411 C.ar    1  UNL1        0.0941
     15 N          61.2481   92.4483    2.1659 N.ar    1  UNL1       -0.2326
     16 C          60.0735   92.2411    2.8189 C.ar    1  UNL1        0.1314
     17 C          58.8801   92.6659    2.2272 C.ar    1  UNL1        0.0343
     18 C          58.9106   93.2610    0.9676 C.ar    1  UNL1        0.0080
     19 C          60.1285   93.4384    0.2859 C.ar    1  UNL1        0.0875
     20 C          60.1398   94.0949   -1.0814 C.3     1  UNL1        0.4197
     21 F          59.0224   94.8897   -1.2737 F       1  UNL1       -0.1658
     22 F          61.2650   94.8891   -1.2028 F       1  UNL1       -0.1658
     23 F          60.1488   93.1333   -2.0754 F       1  UNL1       -0.1658
     24 C          62.6817   93.1987    0.3051 C.3     1  UNL1        0.1876
     25 C          64.6423   94.2395    0.9257 C.3     1  UNL1        0.1747
     26 O          63.6771   93.2844    1.3051 O.3     1  UNL1       -0.3447
     27 C          60.0051   87.9153   11.7591 C.2     1  UNL1        0.2483
     28 O          59.1835   88.3467   12.6140 O.2     1  UNL1       -0.2701
     29 N          60.8947   86.8411   12.1069 N.am    1  UNL1       -0.2945
     30 H          61.3836   86.3405   11.3320 H       1  UNL1        0.1501
     31 C          61.0197   86.3439   13.4860 C.3     1  UNL1        0.1535
     32 C          60.3321   85.0089   13.6620 C.2     1  UNL1        0.2443
     33 O          59.2895   84.9245   14.3679 O.2     1  UNL1       -0.2730
     34 N          60.7965   83.8701   12.9193 N.am    1  UNL1       -0.2825
     35 H          61.5001   84.0361   12.1643 H       1  UNL1        0.1549
     36 C          60.2132   82.5605   13.0175 C.ar    1  UNL1        0.0535
     37 C          60.8225   81.5400   13.7664 C.ar    1  UNL1        0.0353
     38 C          60.2272   80.2771   13.8207 C.ar    1  UNL1        0.1002
     39 N          59.0740   80.0363   13.1426 N.ar    1  UNL1       -0.2422
     40 C          58.4724   81.0001   12.3965 C.ar    1  UNL1        0.1002
     41 C          59.0353   82.2758   12.3139 C.ar    1  UNL1        0.0353
     42 C          62.4983   86.2583   13.9190 C.3     1  UNL1        0.0569
     43 C          62.9332   87.4361   14.7457 C.ar    1  UNL1       -0.0017
     44 C          62.9550   87.5078   16.1351 C.ar    1  UNL1        0.0681
     45 N          63.3423   88.7391   16.5386 N.ar    1  UNL1       -0.3523
     46 C          63.5624   89.4460   15.4164 C.ar    1  UNL1        0.0563
     47 C          63.9663   90.7771   15.3222 C.ar    1  UNL1        0.0170
     48 C          64.1262   91.3267   14.0370 C.ar    1  UNL1        0.0015
     49 C          63.8825   90.5424   12.8877 C.ar    1  UNL1        0.0001
     50 C          63.4772   89.2015   13.0128 C.ar    1  UNL1        0.0012
     51 C          63.3243   88.6847   14.3006 C.ar    1  UNL1        0.0131
     52 H          63.4404   89.0717   17.5236 H       1  UNL1        0.1660
@<TRIPOS>BOND
     1    25    26    1
     2    26    24    1
     3    24    14    1
     4    14    15   ar
     5    15    16   ar
     6    16     8    1
     7     8     9    1
     8     9    10    1
     9    10    11    1
    10    11     1    1
    11     1     2   ar
    12     2     3   ar
    13     3     4   ar
    14     4    27    1
    15    27    28    2
    16    27    29   am
    17    29    31    1
    18    31    42    1
    19    42    43    1
    20    43    44   ar
    21    44    45   ar
    22    45    46   ar
    23    46    47   ar
    24    47    48   ar
    25    48    49   ar
    26    49    50   ar
    27    50    51   ar
    28    31    32    1
    29    32    33    2
    30    32    34   am
    31    34    36    1
    32    36    37   ar
    33    37    38   ar
    34    38    39   ar
    35    39    40   ar
    36    40    41   ar
    37     4     5   ar
    38     5     6    1
    39     5     7   ar
    40    11    12    1
    41    12    13    1
    42    16    17   ar
    43    17    18   ar
    44    18    19   ar
    45    19    20    1
    46    20    21    1
    47    20    22    1
    48    20    23    1
    49    19    14   ar
    50    13     8    1
    51     7     1   ar
    52    51    43   ar
    53    41    36   ar
    54    51    46   ar
    55    29    30    1
    56    45    52    1
    57    34    35    1
@<TRIPOS>MOLECULE
*****
 52 57 0 0 0
SMALL
GASTEIGER

@<TRIPOS>ATOM
      1 C          60.0442   87.7232    9.7162 C.ar    1  UNL1        0.0502
      2 C          59.3040   86.5315    9.7061 C.ar    1  UNL1        0.0148
      3 C          59.3810   85.6423   10.7807 C.ar    1  UNL1        0.0080
      4 C          60.2085   85.9190   11.8830 C.ar    1  UNL1        0.0808
      5 C          60.9433   87.1227   11.8965 C.ar    1  UNL1        0.1457
      6 F          61.7090   87.4693   12.9611 F       1  UNL1       -0.2040
      7 C          60.8612   88.0105   10.8191 C.ar    1  UNL1        0.0443
      8 N          60.2660   90.1474    6.2907 N.pl3   1  UNL1       -0.2897
      9 C          61.2180   90.3691    7.3858 C.3     1  UNL1        0.1136
     10 C          60.5856   89.9716    8.7200 C.3     1  UNL1        0.1123
     11 N          59.9700   88.6438    8.6114 N.pl3   1  UNL1       -0.3040
     12 C          59.0193   88.4177    7.5166 C.3     1  UNL1        0.1123
     13 C          59.6539   88.8159    6.1836 C.3     1  UNL1        0.1136
     14 C          61.4559   92.0142    3.3300 C.ar    1  UNL1        0.0941
     15 N          61.3810   91.1747    4.4007 N.ar    1  UNL1       -0.2326
     16 C          60.2623   91.0414    5.1621 C.ar    1  UNL1        0.1314
     17 C          59.1335   91.8075    4.8557 C.ar    1  UNL1        0.0343
     18 C          59.1620   92.6660    3.7586 C.ar    1  UNL1        0.0080
     19 C          60.3134   92.7696    2.9568 C.ar    1  UNL1        0.0875
     20 C          60.3253   93.7155    1.7712 C.3     1  UNL1        0.4197
     21 F          60.8411   93.1068    0.6395 F       1  UNL1       -0.1658
     22 F          59.0340   94.1252    1.4947 F       1  UNL1       -0.1658
     23 F          61.1074   94.8221    2.0479 F       1  UNL1       -0.1658
     24 C          62.7442   92.0623    2.5474 C.3     1  UNL1        0.1876
     25 C          64.3101   93.7055    2.1470 C.3     1  UNL1        0.1747
     26 O          63.6421   92.9730    3.1495 O.3     1  UNL1       -0.3447
     27 C          60.2682   84.9537   13.0074 C.2     1  UNL1        0.2483
     28 O          59.2899   84.8716   13.7998 O.2     1  UNL1       -0.2701
     29 N          61.3999   84.0848   13.1827 N.am    1  UNL1       -0.2945
     30 H          62.0747   83.9946   12.3911 H       1  UNL1        0.1501
     31 C          61.5508   83.2257   14.3675 C.3     1  UNL1        0.1535
     32 C          61.0855   81.8131   14.0950 C.2     1  UNL1        0.2443
     33 O          61.7017   80.8367   14.6045 O.2     1  UNL1       -0.2730
     34 N          59.8680   81.5975   13.3636 N.am    1  UNL1       -0.2825
     35 H          59.2612   82.4273   13.1742 H       1  UNL1        0.1549
     36 C          59.3430   80.2966   13.0519 C.ar    1  UNL1        0.0535
     37 C          59.1979   79.3079   14.0392 C.ar    1  UNL1        0.0353
     38 C          58.6975   78.0518   13.6869 C.ar    1  UNL1        0.1002
     39 N          58.3666   77.7865   12.3955 N.ar    1  UNL1       -0.2422
     40 C          58.5131   78.7187   11.4171 C.ar    1  UNL1        0.1002
     41 C          59.0114   79.9864   11.7262 C.ar    1  UNL1        0.0353
     42 C          63.0053   83.2320   14.8829 C.3     1  UNL1        0.0569
     43 C          63.6236   84.6021   14.8675 C.ar    1  UNL1       -0.0017
     44 C          64.8684   84.9415   14.3464 C.ar    1  UNL1        0.0681
     45 N          65.1293   86.2510   14.5610 N.ar    1  UNL1       -0.3523
     46 C          64.0618   86.7405   15.2152 C.ar    1  UNL1        0.0563
     47 C          63.8729   88.0464   15.6656 C.ar    1  UNL1        0.0170
     48 C          62.6764   88.3417   16.3441 C.ar    1  UNL1        0.0015
     49 C          61.7059   87.3371   16.5542 C.ar    1  UNL1        0.0001
     50 C          61.9226   86.0282   16.0875 C.ar    1  UNL1        0.0012
     51 C          63.1202   85.7645   15.4204 C.ar    1  UNL1        0.0131
     52 H          65.9910   86.7703   14.2812 H       1  UNL1        0.1660
@<TRIPOS>BOND
     1    25    26    1
     2    26    24    1
     3    24    14    1
     4    14    15   ar
     5    15    16   ar
     6    16     8    1
     7     8     9    1
     8     9    10    1
     9    10    11    1
    10    11     1    1
    11     1     2   ar
    12     2     3   ar
    13     3     4   ar
    14     4    27    1
    15    27    28    2
    16    27    29   am
    17    29    31    1
    18    31    42    1
    19    42    43    1
    20    43    44   ar
    21    44    45   ar
    22    45    46   ar
    23    46    47   ar
    24    47    48   ar
    25    48    49   ar
    26    49    50   ar
    27    50    51   ar
    28    31    32    1
    29    32    33    2
    30    32    34   am
    31    34    36    1
    32    36    37   ar
    33    37    38   ar
    34    38    39   ar
    35    39    40   ar
    36    40    41   ar
    37     4     5   ar
    38     5     6    1
    39     5     7   ar
    40    11    12    1
    41    12    13    1
    42    16    17   ar
    43    17    18   ar
    44    18    19   ar
    45    19    20    1
    46    20    21    1
    47    20    22    1
    48    20    23    1
    49    19    14   ar
    50    13     8    1
    51     7     1   ar
    52    51    43   ar
    53    41    36   ar
    54    51    46   ar
    55    29    30    1
    56    45    52    1
    57    34    35    1
@<TRIPOS>MOLECULE
*****
 52 57 0 0 0
SMALL
GASTEIGER

@<TRIPOS>ATOM
      1 C          59.8458   88.0510    9.4257 C.ar    1  UNL1        0.0502
      2 C          59.4197   86.7230    9.2742 C.ar    1  UNL1        0.0148
      3 C          59.4492   85.8429   10.3585 C.ar    1  UNL1        0.0080
      4 C          59.9166   86.2675   11.6147 C.ar    1  UNL1        0.0808
      5 C          60.3340   87.6059   11.7680 C.ar    1  UNL1        0.1457
      6 F          60.7355   88.0855   12.9716 F       1  UNL1       -0.2040
      7 C          60.3006   88.4835   10.6797 C.ar    1  UNL1        0.0443
      8 N          60.1749   90.4119    5.9649 N.pl3   1  UNL1       -0.2897
      9 C          61.1738   90.5621    7.0300 C.3     1  UNL1        0.1136
     10 C          60.5487   90.2342    8.3863 C.3     1  UNL1        0.1123
     11 N          59.8187   88.9632    8.3118 N.pl3   1  UNL1       -0.3040
     12 C          58.8207   88.8086    7.2471 C.3     1  UNL1        0.1123
     13 C          59.4480   89.1371    5.8919 C.3     1  UNL1        0.1136
     14 C          61.4641   92.2039    2.9995 C.ar    1  UNL1        0.0941
     15 N          61.3480   91.3806    4.0791 N.ar    1  UNL1       -0.2326
     16 C          60.2149   91.2914    4.8256 C.ar    1  UNL1        0.1314
     17 C          59.1149   92.0879    4.4934 C.ar    1  UNL1        0.0343
     18 C          59.1856   92.9313    3.3865 C.ar    1  UNL1        0.0080
     19 C          60.3510   92.9893    2.6005 C.ar    1  UNL1        0.0875
     20 C          60.4091   93.9194    1.4038 C.3     1  UNL1        0.4197
     21 F          59.1937   94.5463    1.1868 F       1  UNL1       -0.1658
     22 F          61.3676   94.8919    1.6212 F       1  UNL1       -0.1658
     23 F          60.7276   93.2104    0.2598 F       1  UNL1       -0.1658
     24 C          62.7644   92.2025    2.2354 C.3     1  UNL1        0.1876
     25 C          64.3822   93.8131    1.9175 C.3     1  UNL1        0.1747
     26 O          63.7054   93.0370    2.8805 O.3     1  UNL1       -0.3447
     27 C          59.9357   85.3079   12.7453 C.2     1  UNL1        0.2483
     28 O          58.8453   84.9660   13.2801 O.2     1  UNL1       -0.2701
     29 N          61.1675   84.7319   13.2115 N.am    1  UNL1       -0.2945
     30 H          62.0140   84.8335   12.6088 H       1  UNL1        0.1501
     31 C          61.2321   83.8951   14.4200 C.3     1  UNL1        0.1535
     32 C          60.8842   82.4546   14.1202 C.2     1  UNL1        0.2443
     33 O          61.5965   81.5234   14.5871 O.2     1  UNL1       -0.2730
     34 N          59.6707   82.1517   13.4134 N.am    1  UNL1       -0.2825
     35 H          58.9892   82.9296   13.2621 H       1  UNL1        0.1549
     36 C          59.2527   80.8181   13.0790 C.ar    1  UNL1        0.0535
     37 C          59.2257   79.7946   14.0407 C.ar    1  UNL1        0.0353
     38 C          58.8269   78.5089   13.6664 C.ar    1  UNL1        0.1002
     39 N          58.4806   78.2496   12.3778 N.ar    1  UNL1       -0.2422
     40 C          58.5142   79.2167   11.4233 C.ar    1  UNL1        0.1002
     41 C          58.9087   80.5150   11.7548 C.ar    1  UNL1        0.0353
     42 C          62.6154   83.9938   15.0966 C.3     1  UNL1        0.0569
     43 C          62.8186   85.2947   15.8219 C.ar    1  UNL1       -0.0017
     44 C          62.5755   85.5359   17.1706 C.ar    1  UNL1        0.0681
     45 N          62.8082   86.8345   17.4677 N.ar    1  UNL1       -0.3523
     46 C          63.1933   87.4157   16.3182 C.ar    1  UNL1        0.0563
     47 C          63.5297   88.7541   16.1198 C.ar    1  UNL1        0.0170
     48 C          63.8954   89.1550   14.8217 C.ar    1  UNL1        0.0015
     49 C          63.9173   88.2199   13.7632 C.ar    1  UNL1        0.0001
     50 C          63.5743   86.8755   13.9928 C.ar    1  UNL1        0.0012
     51 C          63.2130   86.5079   15.2902 C.ar    1  UNL1        0.0131
     52 H          62.7006   87.2909   18.4007 H       1  UNL1        0.1660
@<TRIPOS>BOND
     1    25    26    1
     2    26    24    1
     3    24    14    1
     4    14    15   ar
     5    15    16   ar
     6    16     8    1
     7     8     9    1
     8     9    10    1
     9    10    11    1
    10    11     1    1
    11     1     2   ar
    12     2     3   ar
    13     3     4   ar
    14     4    27    1
    15    27    28    2
    16    27    29   am
    17    29    31    1
    18    31    42    1
    19    42    43    1
    20    43    44   ar
    21    44    45   ar
    22    45    46   ar
    23    46    47   ar
    24    47    48   ar
    25    48    49   ar
    26    49    50   ar
    27    50    51   ar
    28    31    32    1
    29    32    33    2
    30    32    34   am
    31    34    36    1
    32    36    37   ar
    33    37    38   ar
    34    38    39   ar
    35    39    40   ar
    36    40    41   ar
    37     4     5   ar
    38     5     6    1
    39     5     7   ar
    40    11    12    1
    41    12    13    1
    42    16    17   ar
    43    17    18   ar
    44    18    19   ar
    45    19    20    1
    46    20    21    1
    47    20    22    1
    48    20    23    1
    49    19    14   ar
    50    13     8    1
    51     7     1   ar
    52    51    43   ar
    53    41    36   ar
    54    51    46   ar
    55    29    30    1
    56    45    52    1
    57    34    35    1
@<TRIPOS>MOLECULE
*****
 52 57 0 0 0
SMALL
GASTEIGER

@<TRIPOS>ATOM
      1 C          60.2428   88.5024    9.6970 C.ar    1  UNL1        0.0502
      2 C          60.2329   87.1021    9.6124 C.ar    1  UNL1        0.0148
      3 C          60.3437   86.3232   10.7667 C.ar    1  UNL1        0.0080
      4 C          60.4789   86.9268   12.0292 C.ar    1  UNL1        0.0808
      5 C          60.4774   88.3346   12.1135 C.ar    1  UNL1        0.1457
      6 F          60.5427   88.9691   13.3106 F       1  UNL1       -0.2040
      7 C          60.3642   89.1098   10.9551 C.ar    1  UNL1        0.0443
      8 N          60.2526   90.5012    6.0005 N.pl3   1  UNL1       -0.2897
      9 C          61.4150   90.6331    6.8872 C.3     1  UNL1        0.1136
     10 C          60.9804   90.4958    8.3467 C.3     1  UNL1        0.1123
     11 N          60.1297   89.3112    8.5110 N.pl3   1  UNL1       -0.3040
     12 C          58.9679   89.1749    7.6249 C.3     1  UNL1        0.1123
     13 C          59.4048   89.3126    6.1661 C.3     1  UNL1        0.1136
     14 C          61.3468   92.1445    2.8749 C.ar    1  UNL1        0.0941
     15 N          61.3192   91.4187    4.0279 N.ar    1  UNL1       -0.2326
     16 C          60.1985   91.2680    4.7830 C.ar    1  UNL1        0.1314
     17 C          59.0155   91.8951    4.3805 C.ar    1  UNL1        0.0343
     18 C          58.9957   92.6328    3.1986 C.ar    1  UNL1        0.0080
     19 C          60.1526   92.7528    2.4069 C.ar    1  UNL1        0.0875
     20 C          60.1109   93.5663    1.1275 C.3     1  UNL1        0.4197
     21 F          60.9064   94.6962    1.2166 F       1  UNL1       -0.1658
     22 F          60.5673   92.7947    0.0749 F       1  UNL1       -0.1658
     23 F          58.8181   93.9810    0.8643 F       1  UNL1       -0.1658
     24 C          62.6443   92.2236    2.1103 C.3     1  UNL1        0.1876
     25 C          64.2453   93.8745    1.9554 C.3     1  UNL1        0.1747
     26 O          63.5861   92.9902    2.8337 O.3     1  UNL1       -0.3447
     27 C          60.5951   86.0712   13.2351 C.2     1  UNL1        0.2483
     28 O          59.5527   85.5603   13.7291 O.2     1  UNL1       -0.2701
     29 N          61.8753   85.7824   13.8218 N.am    1  UNL1       -0.2945
     30 H          62.7300   86.0056   13.2653 H       1  UNL1        0.1501
     31 C          62.0066   85.0613   15.0975 C.3     1  UNL1        0.1535
     32 C          61.9392   83.5637   14.9013 C.2     1  UNL1        0.2443
     33 O          62.5911   82.7977   15.6634 O.2     1  UNL1       -0.2730
     34 N          61.0320   83.0170   13.9307 N.am    1  UNL1       -0.2825
     35 H          60.3355   83.6648   13.4973 H       1  UNL1        0.1549
     36 C          60.8952   81.6108   13.6683 C.ar    1  UNL1        0.0535
     37 C          61.9846   80.8350   13.2386 C.ar    1  UNL1        0.0353
     38 C          61.8011   79.4741   12.9805 C.ar    1  UNL1        0.1002
     39 N          60.5736   78.9100   13.1320 N.ar    1  UNL1       -0.2422
     40 C          59.4986   79.6406   13.5297 C.ar    1  UNL1        0.1002
     41 C          59.6383   81.0046   13.7964 C.ar    1  UNL1        0.0353
     42 C          63.3030   85.4580   15.8345 C.3     1  UNL1        0.0569
     43 C          63.3164   86.9010   16.2557 C.ar    1  UNL1       -0.0017
     44 C          63.0238   87.3950   17.5231 C.ar    1  UNL1        0.0681
     45 N          63.0727   88.7465   17.5264 N.ar    1  UNL1       -0.3523
     46 C          63.3908   89.1100   16.2718 C.ar    1  UNL1        0.0563
     47 C          63.5440   90.4060   15.7811 C.ar    1  UNL1        0.0170
     48 C          63.8696   90.5603   14.4211 C.ar    1  UNL1        0.0015
     49 C          64.0339   89.4289   13.5915 C.ar    1  UNL1        0.0001
     50 C          63.8745   88.1330   14.1140 C.ar    1  UNL1        0.0012
     51 C          63.5488   88.0113   15.4661 C.ar    1  UNL1        0.0131
     52 H          62.8907   89.3763   18.3392 H       1  UNL1        0.1660
@<TRIPOS>BOND
     1    25    26    1
     2    26    24    1
     3    24    14    1
     4    14    15   ar
     5    15    16   ar
     6    16     8    1
     7     8     9    1
     8     9    10    1
     9    10    11    1
    10    11     1    1
    11     1     2   ar
    12     2     3   ar
    13     3     4   ar
    14     4    27    1
    15    27    28    2
    16    27    29   am
    17    29    31    1
    18    31    42    1
    19    42    43    1
    20    43    44   ar
    21    44    45   ar
    22    45    46   ar
    23    46    47   ar
    24    47    48   ar
    25    48    49   ar
    26    49    50   ar
    27    50    51   ar
    28    31    32    1
    29    32    33    2
    30    32    34   am
    31    34    36    1
    32    36    37   ar
    33    37    38   ar
    34    38    39   ar
    35    39    40   ar
    36    40    41   ar
    37     4     5   ar
    38     5     6    1
    39     5     7   ar
    40    11    12    1
    41    12    13    1
    42    16    17   ar
    43    17    18   ar
    44    18    19   ar
    45    19    20    1
    46    20    21    1
    47    20    22    1
    48    20    23    1
    49    19    14   ar
    50    13     8    1
    51     7     1   ar
    52    51    43   ar
    53    41    36   ar
    54    51    46   ar
    55    29    30    1
    56    45    52    1
    57    34    35    1
@<TRIPOS>MOLECULE
*****
 52 57 0 0 0
SMALL
GASTEIGER

@<TRIPOS>ATOM
      1 C          61.4927   88.9794   13.2809 C.ar    1  UNL1        0.0502
      2 C          60.9129   88.0120   14.1150 C.ar    1  UNL1        0.0148
      3 C          59.8452   87.2345   13.6602 C.ar    1  UNL1        0.0080
      4 C          59.3261   87.4154   12.3662 C.ar    1  UNL1        0.0808
      5 C          59.9175   88.3807   11.5251 C.ar    1  UNL1        0.1457
      6 F          59.4976   88.5542   10.2471 F       1  UNL1       -0.2040
      7 C          60.9875   89.1550   11.9846 C.ar    1  UNL1        0.0443
      8 N          65.0266   90.9130   14.4781 N.pl3   1  UNL1       -0.2897
      9 C          64.4767   89.8438   15.3202 C.3     1  UNL1        0.1136
     10 C          62.9566   89.7829   15.1657 C.3     1  UNL1        0.1123
     11 N          62.5931   89.7848   13.7438 N.pl3   1  UNL1       -0.3040
     12 C          63.1426   90.8510   12.8984 C.3     1  UNL1        0.1123
     13 C          64.6625   90.9100   13.0546 C.3     1  UNL1        0.1136
     14 C          68.4729   92.2427   14.6244 C.ar    1  UNL1        0.0941
     15 N          67.3432   91.5829   14.2434 N.ar    1  UNL1       -0.2326
     16 C          66.1734   91.6552   14.9328 C.ar    1  UNL1        0.1314
     17 C          66.1156   92.4244   16.0990 C.ar    1  UNL1        0.0343
     18 C          67.2435   93.1290   16.5148 C.ar    1  UNL1        0.0080
     19 C          68.4384   93.0747   15.7741 C.ar    1  UNL1        0.0875
     20 C          69.6565   93.8440   16.2485 C.3     1  UNL1        0.4197
     21 F          70.3761   94.3635   15.1857 F       1  UNL1       -0.1658
     22 F          69.2548   94.8921   17.0559 F       1  UNL1       -0.1658
     23 F          70.5006   93.0133   16.9628 F       1  UNL1       -0.1658
     24 C          69.7064   92.1028   13.7680 C.3     1  UNL1        0.1876
     25 C          68.4499   92.2231   11.8394 C.3     1  UNL1        0.1747
     26 O          69.3832   91.4479   12.5577 O.3     1  UNL1       -0.3447
     27 C          58.1915   86.5740   11.9141 C.2     1  UNL1        0.2483
     28 O          57.0339   86.8149   12.3543 O.2     1  UNL1       -0.2701
     29 N          58.3823   85.5206   10.9548 N.am    1  UNL1       -0.2945
     30 H          59.2822   85.4977   10.4259 H       1  UNL1        0.1501
     31 C          57.3077   84.5798   10.6015 C.3     1  UNL1        0.1535
     32 C          57.5991   83.8624    9.3029 C.2     1  UNL1        0.2443
     33 O          57.5018   84.4789    8.2060 O.2     1  UNL1       -0.2730
     34 N          58.1104   82.5202    9.3349 N.am    1  UNL1       -0.2825
     35 H          58.4093   82.1358   10.2598 H       1  UNL1        0.1549
     36 C          58.4164   81.7537    8.1585 C.ar    1  UNL1        0.0535
     37 C          59.7144   81.2776    7.9099 C.ar    1  UNL1        0.0353
     38 C          59.9689   80.5495    6.7448 C.ar    1  UNL1        0.1002
     39 N          58.9694   80.3162    5.8536 N.ar    1  UNL1       -0.2422
     40 C          57.7085   80.7798    6.0605 C.ar    1  UNL1        0.1002
     41 C          57.4118   81.5134    7.2115 C.ar    1  UNL1        0.0353
     42 C          57.0516   83.5688   11.7387 C.3     1  UNL1        0.0569
     43 C          58.3082   82.8932   12.2126 C.ar    1  UNL1       -0.0017
     44 C          59.3804   83.5011   12.8583 C.ar    1  UNL1        0.0681
     45 N          60.3671   82.6038   13.0826 N.ar    1  UNL1       -0.3523
     46 C          59.9285   81.4359   12.5817 C.ar    1  UNL1        0.0563
     47 C          60.6045   80.2166   12.5656 C.ar    1  UNL1        0.0170
     48 C          59.9595   79.1145   11.9752 C.ar    1  UNL1        0.0015
     49 C          58.6676   79.2535   11.4212 C.ar    1  UNL1        0.0001
     50 C          58.0086   80.4956   11.4528 C.ar    1  UNL1        0.0012
     51 C          58.6746   81.5715   12.0425 C.ar    1  UNL1        0.0131
     52 H          61.2858   82.7877   13.5437 H       1  UNL1        0.1660
@<TRIPOS>BOND
     1    25    26    1
     2    26    24    1
     3    24    14    1
     4    14    15   ar
     5    15    16   ar
     6    16     8    1
     7     8     9    1
     8     9    10    1
     9    10    11    1
    10    11     1    1
    11     1     2   ar
    12     2     3   ar
    13     3     4   ar
    14     4    27    1
    15    27    28    2
    16    27    29   am
    17    29    31    1
    18    31    42    1
    19    42    43    1
    20    43    44   ar
    21    44    45   ar
    22    45    46   ar
    23    46    47   ar
    24    47    48   ar
    25    48    49   ar
    26    49    50   ar
    27    50    51   ar
    28    31    32    1
    29    32    33    2
    30    32    34   am
    31    34    36    1
    32    36    37   ar
    33    37    38   ar
    34    38    39   ar
    35    39    40   ar
    36    40    41   ar
    37     4     5   ar
    38     5     6    1
    39     5     7   ar
    40    11    12    1
    41    12    13    1
    42    16    17   ar
    43    17    18   ar
    44    18    19   ar
    45    19    20    1
    46    20    21    1
    47    20    22    1
    48    20    23    1
    49    19    14   ar
    50    13     8    1
    51     7     1   ar
    52    51    43   ar
    53    41    36   ar
    54    51    46   ar
    55    29    30    1
    56    45    52    1
    57    34    35    1
@<TRIPOS>MOLECULE
*****
 52 57 0 0 0
SMALL
GASTEIGER

@<TRIPOS>ATOM
      1 C          61.5403   87.0339   13.7506 C.ar    1  UNL1        0.0502
      2 C          60.2982   86.8929   14.3871 C.ar    1  UNL1        0.0148
      3 C          59.4348   85.8544   14.0303 C.ar    1  UNL1        0.0080
      4 C          59.7889   84.9417   13.0212 C.ar    1  UNL1        0.0808
      5 C          61.0427   85.0784   12.3902 C.ar    1  UNL1        0.1457
      6 F          61.4614   84.1902   11.4544 F       1  UNL1       -0.2040
      7 C          61.9043   86.1186   12.7526 C.ar    1  UNL1        0.0443
      8 N          64.5377   89.8718   14.5392 N.pl3   1  UNL1       -0.2897
      9 C          64.5199   88.6197   15.3053 C.3     1  UNL1        0.1136
     10 C          63.0873   88.0994   15.4277 C.3     1  UNL1        0.1123
     11 N          62.4347   88.1027   14.1132 N.pl3   1  UNL1       -0.3040
     12 C          62.4524   89.3520   13.3435 C.3     1  UNL1        0.1123
     13 C          63.8858   89.8704   13.2224 C.3     1  UNL1        0.1136
     14 C          67.5847   91.9616   14.4148 C.ar    1  UNL1        0.0941
     15 N          66.6298   91.0281   14.1434 N.ar    1  UNL1       -0.2326
     16 C          65.4920   90.8960   14.8761 C.ar    1  UNL1        0.1314
     17 C          65.2855   91.7381   15.9729 C.ar    1  UNL1        0.0343
     18 C          66.2291   92.7178   16.2752 C.ar    1  UNL1        0.0080
     19 C          67.3859   92.8683   15.4888 C.ar    1  UNL1        0.0875
     20 C          68.4036   93.9369   15.8396 C.3     1  UNL1        0.4197
     21 F          69.6753   93.4051   15.9709 F       1  UNL1       -0.1658
     22 F          68.4325   94.8925   14.8407 F       1  UNL1       -0.1658
     23 F          68.0729   94.5391   17.0399 F       1  UNL1       -0.1658
     24 C          68.7961   92.0272   13.5189 C.3     1  UNL1        0.1876
     25 C          67.8811   92.4752   11.4514 C.3     1  UNL1        0.1747
     26 O          68.4893   91.4851   12.2500 O.3     1  UNL1       -0.3447
     27 C          58.8491   83.8508   12.6655 C.2     1  UNL1        0.2483
     28 O          57.6076   84.0724   12.7025 O.2     1  UNL1       -0.2701
     29 N          59.3293   82.5641   12.2409 N.am    1  UNL1       -0.2945
     30 H          60.3375   82.4789   11.9831 H       1  UNL1        0.1501
     31 C          58.4252   81.4237   12.0249 C.3     1  UNL1        0.1535
     32 C          58.1982   81.1629   10.5530 C.2     1  UNL1        0.2443
     33 O          57.3348   80.3180   10.1880 O.2     1  UNL1       -0.2730
     34 N          58.8753   81.9721    9.5780 N.am    1  UNL1       -0.2825
     35 H          59.3873   82.8172    9.9188 H       1  UNL1        0.1549
     36 C          58.7286   81.8027    8.1586 C.ar    1  UNL1        0.0535
     37 C          59.5570   82.4808    7.2491 C.ar    1  UNL1        0.0353
     38 C          59.3676   82.2974    5.8770 C.ar    1  UNL1        0.1002
     39 N          58.3801   81.4786    5.4276 N.ar    1  UNL1       -0.2422
     40 C          57.5531   80.8237    6.2849 C.ar    1  UNL1        0.1002
     41 C          57.7071   80.9807    7.6642 C.ar    1  UNL1        0.0353
     42 C          58.9460   80.1541   12.7308 C.3     1  UNL1        0.0569
     43 C          60.3363   80.3196   13.2780 C.ar    1  UNL1       -0.0017
     44 C          60.7207   80.1960   14.6096 C.ar    1  UNL1        0.0681
     45 N          62.0369   80.4733   14.7491 N.ar    1  UNL1       -0.3523
     46 C          62.4861   80.7737   13.5181 C.ar    1  UNL1        0.0563
     47 C          63.7821   81.1406   13.1580 C.ar    1  UNL1        0.0170
     48 C          64.0327   81.4261   11.8034 C.ar    1  UNL1        0.0015
     49 C          62.9945   81.3387   10.8495 C.ar    1  UNL1        0.0001
     50 C          61.6966   80.9646   11.2411 C.ar    1  UNL1        0.0012
     51 C          61.4775   80.6902   12.5922 C.ar    1  UNL1        0.0131
     52 H          62.5868   80.4636   15.6367 H       1  UNL1        0.1660
@<TRIPOS>BOND
     1    25    26    1
     2    26    24    1
     3    24    14    1
     4    14    15   ar
     5    15    16   ar
     6    16     8    1
     7     8     9    1
     8     9    10    1
     9    10    11    1
    10    11     1    1
    11     1     2   ar
    12     2     3   ar
    13     3     4   ar
    14     4    27    1
    15    27    28    2
    16    27    29   am
    17    29    31    1
    18    31    42    1
    19    42    43    1
    20    43    44   ar
    21    44    45   ar
    22    45    46   ar
    23    46    47   ar
    24    47    48   ar
    25    48    49   ar
    26    49    50   ar
    27    50    51   ar
    28    31    32    1
    29    32    33    2
    30    32    34   am
    31    34    36    1
    32    36    37   ar
    33    37    38   ar
    34    38    39   ar
    35    39    40   ar
    36    40    41   ar
    37     4     5   ar
    38     5     6    1
    39     5     7   ar
    40    11    12    1
    41    12    13    1
    42    16    17   ar
    43    17    18   ar
    44    18    19   ar
    45    19    20    1
    46    20    21    1
    47    20    22    1
    48    20    23    1
    49    19    14   ar
    50    13     8    1
    51     7     1   ar
    52    51    43   ar
    53    41    36   ar
    54    51    46   ar
    55    29    30    1
    56    45    52    1
    57    34    35    1
@<TRIPOS>MOLECULE
*****
 52 57 0 0 0
SMALL
GASTEIGER

@<TRIPOS>ATOM
      1 C          59.8826   89.3520    7.8359 C.ar    1  UNL1        0.0502
      2 C          59.0986   88.1890    7.8628 C.ar    1  UNL1        0.0148
      3 C          59.0064   87.4252    9.0287 C.ar    1  UNL1        0.0080
      4 C          59.7055   87.8004   10.1894 C.ar    1  UNL1        0.0808
      5 C          60.4843   88.9759   10.1639 C.ar    1  UNL1        0.1457
      6 F          61.1295   89.4181   11.2720 F       1  UNL1       -0.2040
      7 C          60.5716   89.7382    8.9947 C.ar    1  UNL1        0.0443
      8 N          60.1207   91.1889    4.0638 N.pl3   1  UNL1       -0.2897
      9 C          61.2881   90.4646    4.5808 C.3     1  UNL1        0.1136
     10 C          61.3013   90.5123    6.1091 C.3     1  UNL1        0.1123
     11 N          59.9825   90.1435    6.6371 N.pl3   1  UNL1       -0.3040
     12 C          58.8128   90.8640    6.1211 C.3     1  UNL1        0.1123
     13 C          58.8019   90.8150    4.5929 C.3     1  UNL1        0.1136
     14 C          61.6271   92.8104    1.1028 C.ar    1  UNL1        0.0941
     15 N          61.4487   92.1193    2.2635 N.ar    1  UNL1       -0.2326
     16 C          60.2271   91.9132    2.8241 C.ar    1  UNL1        0.1314
     17 C          59.0930   92.4438    2.2019 C.ar    1  UNL1        0.0343
     18 C          59.2291   93.1427    1.0041 C.ar    1  UNL1        0.0080
     19 C          60.4944   93.3195    0.4150 C.ar    1  UNL1        0.0875
     20 C          60.6208   94.0895   -0.8856 C.3     1  UNL1        0.4197
     21 F          60.7284   93.2385   -1.9726 F       1  UNL1       -0.1658
     22 F          59.5022   94.8827   -1.0629 F       1  UNL1       -0.1658
     23 F          61.7495   94.8884   -0.8627 F       1  UNL1       -0.1658
     24 C          63.0287   92.9571    0.5657 C.3     1  UNL1        0.1876
     25 C          64.9802   94.0965    1.0196 C.3     1  UNL1        0.1747
     26 O          63.8956   93.3998    1.5907 O.3     1  UNL1       -0.3447
     27 C          59.5869   86.9671   11.4105 C.2     1  UNL1        0.2483
     28 O          58.8706   87.3748   12.3658 O.2     1  UNL1       -0.2701
     29 N          60.2383   85.6892   11.5053 N.am    1  UNL1       -0.2945
     30 H          60.6148   85.2658   10.6283 H       1  UNL1        0.1501
     31 C          60.2587   84.9120   12.7544 C.3     1  UNL1        0.1535
     32 C          60.7613   85.7377   13.9170 C.2     1  UNL1        0.2443
     33 O          60.4063   85.4519   15.0937 O.2     1  UNL1       -0.2730
     34 N          61.7423   86.7616   13.6863 N.am    1  UNL1       -0.2825
     35 H          62.1912   86.8011   12.7431 H       1  UNL1        0.1549
     36 C          62.2805   87.6000   14.7218 C.ar    1  UNL1        0.0535
     37 C          62.4988   87.1129   16.0212 C.ar    1  UNL1        0.0353
     38 C          63.0095   87.9689   17.0003 C.ar    1  UNL1        0.1002
     39 N          63.2799   89.2665   16.6989 N.ar    1  UNL1       -0.2422
     40 C          63.0620   89.7687   15.4548 C.ar    1  UNL1        0.1002
     41 C          62.5509   88.9473   14.4472 C.ar    1  UNL1        0.0353
     42 C          58.8696   84.3171   13.0669 C.3     1  UNL1        0.0569
     43 C          58.6168   83.0188   12.3526 C.ar    1  UNL1       -0.0017
     44 C          58.7313   81.7418   12.8934 C.ar    1  UNL1        0.0681
     45 N          58.4908   80.8051   11.9480 N.ar    1  UNL1       -0.3523
     46 C          58.2283   81.4792   10.8149 C.ar    1  UNL1        0.0563
     47 C          57.9334   80.9431    9.5621 C.ar    1  UNL1        0.0170
     48 C          57.7019   81.8380    8.5015 C.ar    1  UNL1        0.0015
     49 C          57.7687   83.2328    8.7142 C.ar    1  UNL1        0.0001
     50 C          58.0670   83.7457    9.9893 C.ar    1  UNL1        0.0012
     51 C          58.2947   82.8336   11.0214 C.ar    1  UNL1        0.0131
     52 H          58.5142   79.7689   12.0751 H       1  UNL1        0.1660
@<TRIPOS>BOND
     1    25    26    1
     2    26    24    1
     3    24    14    1
     4    14    15   ar
     5    15    16   ar
     6    16     8    1
     7     8     9    1
     8     9    10    1
     9    10    11    1
    10    11     1    1
    11     1     2   ar
    12     2     3   ar
    13     3     4   ar
    14     4    27    1
    15    27    28    2
    16    27    29   am
    17    29    31    1
    18    31    42    1
    19    42    43    1
    20    43    44   ar
    21    44    45   ar
    22    45    46   ar
    23    46    47   ar
    24    47    48   ar
    25    48    49   ar
    26    49    50   ar
    27    50    51   ar
    28    31    32    1
    29    32    33    2
    30    32    34   am
    31    34    36    1
    32    36    37   ar
    33    37    38   ar
    34    38    39   ar
    35    39    40   ar
    36    40    41   ar
    37     4     5   ar
    38     5     6    1
    39     5     7   ar
    40    11    12    1
    41    12    13    1
    42    16    17   ar
    43    17    18   ar
    44    18    19   ar
    45    19    20    1
    46    20    21    1
    47    20    22    1
    48    20    23    1
    49    19    14   ar
    50    13     8    1
    51     7     1   ar
    52    51    43   ar
    53    41    36   ar
    54    51    46   ar
    55    29    30    1
    56    45    52    1
    57    34    35    1
