@<TRIPOS>MOLECULE
*****
 47 52 0 0 0
SMALL
GASTEIGER

@<TRIPOS>ATOM
      1 C          -7.3367  -14.1243   27.7921 C.ar    1  UNL1        0.0702
      2 C          -6.7705  -13.0650   28.5110 C.ar    1  UNL1        0.0191
      3 C          -7.5274  -12.3709   29.4559 C.ar    1  UNL1        0.0356
      4 C          -8.8670  -12.7341   29.6743 C.ar    1  UNL1        0.1318
      5 N          -9.4063  -13.7453   28.9372 N.ar    1  UNL1       -0.2279
      6 C          -8.6872  -14.4371   28.0144 C.ar    1  UNL1        0.1149
      7 N          -9.6867  -12.0377   30.6367 N.pl3   1  UNL1       -0.2932
      8 C          -9.2278  -10.7456   31.1669 C.3     1  UNL1        0.0923
      9 C          -9.8671  -10.4597   32.5287 C.3     1  UNL1        0.0253
     10 C         -11.4167  -10.4643   32.4674 C.3     1  UNL1        0.0495
     11 C         -11.9717  -11.4622   31.3999 C.3     1  UNL1        0.0528
     12 C         -10.9741  -12.5947   31.0832 C.3     1  UNL1        0.0947
     13 C         -13.3477  -12.0378   31.7951 C.3     1  UNL1        0.1389
     14 O         -13.3685  -12.4221   33.1460 O.3     1  UNL1       -0.3819
     15 H         -13.8354  -11.7047   33.6484 H       1  UNL1        0.2104
     16 C         -11.9596   -9.0439   32.2171 C.3     1  UNL1        0.2055
     17 O         -11.6012   -8.6080   30.9069 O.3     1  UNL1       -0.4755
     18 C         -10.9743   -7.3867   30.6200 C.ar    1  UNL1        0.1388
     19 C         -11.6923   -6.1854   30.4783 C.ar    1  UNL1        0.0369
     20 C         -11.0191   -4.9954   30.1961 C.ar    1  UNL1        0.0033
     21 C          -9.6303   -4.9893   30.0470 C.ar    1  UNL1        0.0066
     22 C          -8.8960   -6.1817   30.1742 C.ar    1  UNL1        0.0785
     23 C          -9.5821   -7.3741   30.4707 C.ar    1  UNL1        0.0433
     24 C          -7.4202   -6.1939   30.0242 C.2     1  UNL1        0.3381
     25 O          -6.8344   -7.2593   29.6939 O.2     1  UNL1       -0.2451
     26 O          -6.6516   -5.0477   30.2241 O.3     1  UNL1       -0.4771
     27 H          -7.0615   -4.1376   30.3891 H       1  UNL1        0.2954
     28 C          -6.9592  -15.0020   25.4401 C.2     1  UNL1        0.2839
     29 O          -8.1532  -14.7854   25.0990 O.2     1  UNL1       -0.2665
     30 N          -6.5514  -14.8150   26.8051 N.am    1  UNL1       -0.2766
     31 H          -5.6708  -15.2805   27.1219 H       1  UNL1        0.1553
     32 C          -4.3486  -16.7731   26.0070 C.3     1  UNL1        0.0345
     33 C          -4.8448  -16.2626   24.6878 C.ar    1  UNL1        0.0202
     34 C          -5.9851  -15.4886   24.4446 C.ar    1  UNL1        0.1946
     35 O          -6.0927  -15.2358   23.1524 O.2     1  UNL1       -0.4492
     36 C          -5.0806  -15.8053   22.5447 C.ar    1  UNL1        0.1452
     37 C          -4.7999  -15.7956   21.1830 C.ar    1  UNL1        0.0375
     38 C          -3.6534  -16.4779   20.7405 C.ar    1  UNL1        0.0031
     39 C          -2.8087  -17.1560   21.6604 C.ar    1  UNL1        0.0002
     40 C          -3.1303  -17.1407   23.0389 C.ar    1  UNL1        0.0028
     41 C          -4.2758  -16.4533   23.4431 C.ar    1  UNL1        0.0337
     42 C          -1.6001  -17.8736   21.1812 C.ar    1  UNL1        0.0000
     43 C          -0.7562  -17.2897   20.2173 C.ar    1  UNL1        0.0000
     44 C           0.3812  -17.9676   19.7678 C.ar    1  UNL1        0.0000
     45 C           0.6894  -19.2321   20.2742 C.ar    1  UNL1        0.0000
     46 C          -0.1394  -19.8218   21.2312 C.ar    1  UNL1        0.0000
     47 C          -1.2785  -19.1489   21.6836 C.ar    1  UNL1        0.0000
@<TRIPOS>BOND
     1    32    33    1
     2    33    34   ar
     3    34    28    1
     4    28    29    2
     5    28    30   am
     6    30     1    1
     7     1     2   ar
     8     2     3   ar
     9     3     4   ar
    10     4     7    1
    11     7     8    1
    12     8     9    1
    13     9    10    1
    14    10    16    1
    15    16    17    1
    16    17    18    1
    17    18    19   ar
    18    19    20   ar
    19    20    21   ar
    20    21    22   ar
    21    22    24    1
    22    24    25    2
    23    24    26    1
    24    22    23   ar
    25    10    11    1
    26    11    13    1
    27    13    14    1
    28    11    12    1
    29     4     5   ar
    30     5     6   ar
    31    34    35   ar
    32    35    36   ar
    33    36    37   ar
    34    37    38   ar
    35    38    39   ar
    36    39    42    1
    37    42    43   ar
    38    43    44   ar
    39    44    45   ar
    40    45    46   ar
    41    46    47   ar
    42    39    40   ar
    43    40    41   ar
    44    41    33   ar
    45     6     1   ar
    46    41    36   ar
    47    12     7    1
    48    47    42   ar
    49    23    18   ar
    50    30    31    1
    51    26    27    1
    52    14    15    1
@<TRIPOS>MOLECULE
*****
 47 52 0 0 0
SMALL
GASTEIGER

@<TRIPOS>ATOM
      1 C          -7.1015  -14.0718   27.6929 C.ar    1  UNL1        0.0702
      2 C          -6.4720  -13.0019   28.3396 C.ar    1  UNL1        0.0191
      3 C          -7.1755  -12.2218   29.2584 C.ar    1  UNL1        0.0356
      4 C          -8.5251  -12.5095   29.5231 C.ar    1  UNL1        0.1318
      5 N          -9.1260  -13.5338   28.8549 N.ar    1  UNL1       -0.2279
      6 C          -8.4596  -14.3085   27.9588 C.ar    1  UNL1        0.1149
      7 N          -9.2908  -11.7234   30.4604 N.pl3   1  UNL1       -0.2932
      8 C         -10.5926  -11.1809   30.0450 C.3     1  UNL1        0.0923
      9 C         -10.9623   -9.9543   30.8840 C.3     1  UNL1        0.0253
     10 C         -11.0009  -10.2661   32.4026 C.3     1  UNL1        0.0495
     11 C          -9.9701  -11.3663   32.8155 C.3     1  UNL1        0.0528
     12 C          -8.7945  -11.4686   31.8227 C.3     1  UNL1        0.0947
     13 C          -9.4554  -11.1757   34.2575 C.3     1  UNL1        0.1389
     14 O          -8.6658  -10.0190   34.3663 O.3     1  UNL1       -0.3819
     15 H          -9.2332   -9.3132   34.7723 H       1  UNL1        0.2104
     16 C         -12.4233  -10.6613   32.8450 C.3     1  UNL1        0.2055
     17 O         -12.7786  -11.9213   32.2783 O.3     1  UNL1       -0.4755
     18 C         -12.7578  -13.1390   32.9738 C.ar    1  UNL1        0.1388
     19 C         -12.6845  -13.2050   34.3770 C.ar    1  UNL1        0.0369
     20 C         -12.6705  -14.4435   35.0209 C.ar    1  UNL1        0.0033
     21 C         -12.7236  -15.6251   34.2779 C.ar    1  UNL1        0.0066
     22 C         -12.7863  -15.5802   32.8738 C.ar    1  UNL1        0.0785
     23 C         -12.8121  -14.3269   32.2343 C.ar    1  UNL1        0.0433
     24 C         -12.8483  -16.8243   32.0682 C.2     1  UNL1        0.3381
     25 O         -13.5167  -17.8070   32.4864 O.2     1  UNL1       -0.2451
     26 O         -12.1959  -16.9385   30.8410 O.3     1  UNL1       -0.4771
     27 H         -11.7286  -16.1590   30.3967 H       1  UNL1        0.2954
     28 C          -6.7659  -15.0138   25.3595 C.2     1  UNL1        0.2839
     29 O          -7.9236  -14.6802   24.9891 O.2     1  UNL1       -0.2665
     30 N          -6.3704  -14.8520   26.7312 N.am    1  UNL1       -0.2766
     31 H          -5.5493  -15.4014   27.0729 H       1  UNL1        0.1553
     32 C          -4.1148  -16.6856   26.0303 C.3     1  UNL1        0.0345
     33 C          -4.6680  -16.3417   24.6802 C.ar    1  UNL1        0.0202
     34 C          -5.8258  -15.6105   24.3915 C.ar    1  UNL1        0.1946
     35 O          -5.9868  -15.5165   23.0836 O.2     1  UNL1       -0.4492
     36 C          -4.9927  -16.1484   22.5088 C.ar    1  UNL1        0.1452
     37 C          -4.7656  -16.3015   21.1457 C.ar    1  UNL1        0.0375
     38 C          -3.6294  -17.0245   20.7429 C.ar    1  UNL1        0.0031
     39 C          -2.7415  -17.5807   21.7032 C.ar    1  UNL1        0.0002
     40 C          -3.0092  -17.4010   23.0815 C.ar    1  UNL1        0.0028
     41 C          -4.1459  -16.6776   23.4456 C.ar    1  UNL1        0.0337
     42 C          -1.5444  -18.3427   21.2657 C.ar    1  UNL1        0.0000
     43 C          -0.5691  -17.7374   20.4504 C.ar    1  UNL1        0.0000
     44 C           0.5572  -18.4572   20.0400 C.ar    1  UNL1        0.0000
     45 C           0.7235  -19.7855   20.4380 C.ar    1  UNL1        0.0000
     46 C          -0.2365  -20.3971   21.2472 C.ar    1  UNL1        0.0000
     47 C          -1.3652  -19.6824   21.6599 C.ar    1  UNL1        0.0000
@<TRIPOS>BOND
     1    32    33    1
     2    33    34   ar
     3    34    28    1
     4    28    29    2
     5    28    30   am
     6    30     1    1
     7     1     2   ar
     8     2     3   ar
     9     3     4   ar
    10     4     7    1
    11     7     8    1
    12     8     9    1
    13     9    10    1
    14    10    16    1
    15    16    17    1
    16    17    18    1
    17    18    19   ar
    18    19    20   ar
    19    20    21   ar
    20    21    22   ar
    21    22    24    1
    22    24    25    2
    23    24    26    1
    24    22    23   ar
    25    10    11    1
    26    11    13    1
    27    13    14    1
    28    11    12    1
    29     4     5   ar
    30     5     6   ar
    31    34    35   ar
    32    35    36   ar
    33    36    37   ar
    34    37    38   ar
    35    38    39   ar
    36    39    42    1
    37    42    43   ar
    38    43    44   ar
    39    44    45   ar
    40    45    46   ar
    41    46    47   ar
    42    39    40   ar
    43    40    41   ar
    44    41    33   ar
    45     6     1   ar
    46    41    36   ar
    47    12     7    1
    48    47    42   ar
    49    23    18   ar
    50    30    31    1
    51    26    27    1
    52    14    15    1
@<TRIPOS>MOLECULE
*****
 47 52 0 0 0
SMALL
GASTEIGER

@<TRIPOS>ATOM
      1 C          -7.3323  -14.6055   27.3102 C.ar    1  UNL1        0.0702
      2 C          -6.7340  -13.5850   28.0585 C.ar    1  UNL1        0.0191
      3 C          -7.4860  -12.8516   28.9773 C.ar    1  UNL1        0.0356
      4 C          -8.8524  -13.1357   29.1396 C.ar    1  UNL1        0.1318
      5 N          -9.4204  -14.1097   28.3744 N.ar    1  UNL1       -0.2279
      6 C          -8.7068  -14.8386   27.4762 C.ar    1  UNL1        0.1149
      7 N          -9.6676  -12.3964   30.0733 N.pl3   1  UNL1       -0.2932
      8 C          -9.7931  -12.8819   31.4553 C.3     1  UNL1        0.0923
      9 C         -11.0837  -12.3648   32.0972 C.3     1  UNL1        0.0253
     10 C         -11.1683  -10.8164   32.0911 C.3     1  UNL1        0.0495
     11 C         -10.4580  -10.1818   30.8516 C.3     1  UNL1        0.0528
     12 C         -10.3615  -11.1636   29.6663 C.3     1  UNL1        0.0947
     13 C         -11.1157   -8.8565   30.4141 C.3     1  UNL1        0.1389
     14 O         -10.4414   -8.2920   29.3187 O.3     1  UNL1       -0.3819
     15 H         -10.9731   -8.5008   28.5071 H       1  UNL1        0.2104
     16 C         -10.6024  -10.2313   33.3997 C.3     1  UNL1        0.2055
     17 O          -9.2648  -10.6853   33.5994 O.3     1  UNL1       -0.4755
     18 C          -8.1233  -10.0301   33.1150 C.ar    1  UNL1        0.1388
     19 C          -7.9097   -8.6519   33.2987 C.ar    1  UNL1        0.0369
     20 C          -6.7539   -8.0490   32.7994 C.ar    1  UNL1        0.0033
     21 C          -5.8046   -8.8070   32.1100 C.ar    1  UNL1        0.0066
     22 C          -6.0051  -10.1839   31.9067 C.ar    1  UNL1        0.0785
     23 C          -7.1675  -10.7852   32.4242 C.ar    1  UNL1        0.0433
     24 C          -5.0059  -11.0061   31.1814 C.2     1  UNL1        0.3381
     25 O          -4.3432  -11.8779   31.8044 O.2     1  UNL1       -0.2451
     26 O          -4.7836  -10.8549   29.8131 O.3     1  UNL1       -0.4771
     27 H          -5.3489  -10.2499   29.2319 H       1  UNL1        0.2954
     28 C          -6.7019  -15.2123   24.9271 C.2     1  UNL1        0.2839
     29 O          -7.7131  -14.6346   24.4448 O.2     1  UNL1       -0.2665
     30 N          -6.5501  -15.3369   26.3504 N.am    1  UNL1       -0.2766
     31 H          -5.8910  -16.0633   26.7115 H       1  UNL1        0.1553
     32 C          -4.1359  -16.9333   25.7800 C.3     1  UNL1        0.0345
     33 C          -4.5689  -16.5519   24.3965 C.ar    1  UNL1        0.0202
     34 C          -5.6899  -15.7994   24.0283 C.ar    1  UNL1        0.1946
     35 O          -5.7383  -15.6739   22.7140 O.2     1  UNL1       -0.4492
     36 C          -4.7062  -16.3056   22.2106 C.ar    1  UNL1        0.1452
     37 C          -4.3661  -16.4310   20.8683 C.ar    1  UNL1        0.0375
     38 C          -3.2080  -17.1595   20.5461 C.ar    1  UNL1        0.0031
     39 C          -2.4109  -17.7487   21.5646 C.ar    1  UNL1        0.0002
     40 C          -2.7924  -17.5966   22.9193 C.ar    1  UNL1        0.0028
     41 C          -3.9479  -16.8668   23.2029 C.ar    1  UNL1        0.0337
     42 C          -1.1895  -18.5162   21.2120 C.ar    1  UNL1        0.0000
     43 C          -1.0146  -19.8348   21.6737 C.ar    1  UNL1        0.0000
     44 C           0.1363  -20.5552   21.3401 C.ar    1  UNL1        0.0000
     45 C           1.1231  -19.9704   20.5434 C.ar    1  UNL1        0.0000
     46 C           0.9612  -18.6634   20.0787 C.ar    1  UNL1        0.0000
     47 C          -0.1874  -17.9379   20.4098 C.ar    1  UNL1        0.0000
@<TRIPOS>BOND
     1    32    33    1
     2    33    34   ar
     3    34    28    1
     4    28    29    2
     5    28    30   am
     6    30     1    1
     7     1     2   ar
     8     2     3   ar
     9     3     4   ar
    10     4     7    1
    11     7     8    1
    12     8     9    1
    13     9    10    1
    14    10    16    1
    15    16    17    1
    16    17    18    1
    17    18    19   ar
    18    19    20   ar
    19    20    21   ar
    20    21    22   ar
    21    22    24    1
    22    24    25    2
    23    24    26    1
    24    22    23   ar
    25    10    11    1
    26    11    13    1
    27    13    14    1
    28    11    12    1
    29     4     5   ar
    30     5     6   ar
    31    34    35   ar
    32    35    36   ar
    33    36    37   ar
    34    37    38   ar
    35    38    39   ar
    36    39    42    1
    37    42    43   ar
    38    43    44   ar
    39    44    45   ar
    40    45    46   ar
    41    46    47   ar
    42    39    40   ar
    43    40    41   ar
    44    41    33   ar
    45     6     1   ar
    46    41    36   ar
    47    12     7    1
    48    47    42   ar
    49    23    18   ar
    50    30    31    1
    51    26    27    1
    52    14    15    1
@<TRIPOS>MOLECULE
*****
 47 52 0 0 0
SMALL
GASTEIGER

@<TRIPOS>ATOM
      1 C          -7.3569  -14.5284   27.3604 C.ar    1  UNL1        0.0702
      2 C          -6.8003  -13.4969   28.1257 C.ar    1  UNL1        0.0191
      3 C          -7.5904  -12.7848   29.0290 C.ar    1  UNL1        0.0356
      4 C          -8.9532  -13.1014   29.1585 C.ar    1  UNL1        0.1318
      5 N          -9.4802  -14.0857   28.3773 N.ar    1  UNL1       -0.2279
      6 C          -8.7290  -14.7944   27.4936 C.ar    1  UNL1        0.1149
      7 N          -9.8070  -12.3850   30.0753 N.pl3   1  UNL1       -0.2932
      8 C         -10.0689  -12.9554   31.4048 C.3     1  UNL1        0.0923
      9 C         -11.3824  -12.4155   31.9779 C.3     1  UNL1        0.0253
     10 C         -11.3932  -10.8679   32.0759 C.3     1  UNL1        0.0495
     11 C         -10.5539  -10.1893   30.9451 C.3     1  UNL1        0.0528
     12 C         -10.4062  -11.0927   29.7040 C.3     1  UNL1        0.0947
     13 C         -11.1102   -8.8047   30.5529 C.3     1  UNL1        0.1389
     14 O         -10.0836   -7.8494   30.4712 O.3     1  UNL1       -0.3819
     15 H          -9.8716   -7.7275   29.5094 H       1  UNL1        0.2104
     16 C         -10.9105  -10.4031   33.4637 C.3     1  UNL1        0.2055
     17 O          -9.6099  -10.9260   33.7287 O.3     1  UNL1       -0.4755
     18 C          -8.4262  -10.4387   33.1559 C.ar    1  UNL1        0.1388
     19 C          -7.5240  -11.2695   32.4670 C.ar    1  UNL1        0.0369
     20 C          -6.3609  -10.7330   31.9118 C.ar    1  UNL1        0.0033
     21 C          -6.0816   -9.3705   32.0404 C.ar    1  UNL1        0.0066
     22 C          -6.9656   -8.5256   32.7347 C.ar    1  UNL1        0.0785
     23 C          -8.1415   -9.0733   33.2805 C.ar    1  UNL1        0.0433
     24 C          -6.6884   -7.0753   32.8774 C.2     1  UNL1        0.3381
     25 O          -7.5834   -6.3089   33.3234 O.2     1  UNL1       -0.2451
     26 O          -5.4499   -6.5276   32.5445 O.3     1  UNL1       -0.4771
     27 H          -4.6556   -7.0952   32.2795 H       1  UNL1        0.2954
     28 C          -6.7639  -15.2451   24.9983 C.2     1  UNL1        0.2839
     29 O          -7.8574  -14.8290   24.5292 O.2     1  UNL1       -0.2665
     30 N          -6.5356  -15.2377   26.4168 N.am    1  UNL1       -0.2766
     31 H          -5.7787  -15.8515   26.7949 H       1  UNL1        0.1553
     32 C          -4.2651  -17.0842   25.8024 C.3     1  UNL1        0.0345
     33 C          -4.6376  -16.5837   24.4394 C.ar    1  UNL1        0.0202
     34 C          -5.7294  -15.7798   24.0926 C.ar    1  UNL1        0.1946
     35 O          -5.7251  -15.5482   22.7919 O.2     1  UNL1       -0.4492
     36 C          -4.6864  -16.1597   22.2771 C.ar    1  UNL1        0.1452
     37 C          -4.2976  -16.1843   20.9425 C.ar    1  UNL1        0.0375
     38 C          -3.1418  -16.9095   20.6049 C.ar    1  UNL1        0.0031
     39 C          -2.3954  -17.5957   21.6008 C.ar    1  UNL1        0.0002
     40 C          -2.8256  -17.5446   22.9485 C.ar    1  UNL1        0.0028
     41 C          -3.9772  -16.8151   23.2478 C.ar    1  UNL1        0.0337
     42 C          -1.1760  -18.3588   21.2322 C.ar    1  UNL1        0.0000
     43 C          -0.9980  -19.6825   21.6776 C.ar    1  UNL1        0.0000
     44 C           0.1511  -20.3988   21.3290 C.ar    1  UNL1        0.0000
     45 C           1.1330  -19.8045   20.5332 C.ar    1  UNL1        0.0000
     46 C           0.9680  -18.4924   20.0845 C.ar    1  UNL1        0.0000
     47 C          -0.1788  -17.7710   20.4308 C.ar    1  UNL1        0.0000
@<TRIPOS>BOND
     1    32    33    1
     2    33    34   ar
     3    34    28    1
     4    28    29    2
     5    28    30   am
     6    30     1    1
     7     1     2   ar
     8     2     3   ar
     9     3     4   ar
    10     4     7    1
    11     7     8    1
    12     8     9    1
    13     9    10    1
    14    10    16    1
    15    16    17    1
    16    17    18    1
    17    18    19   ar
    18    19    20   ar
    19    20    21   ar
    20    21    22   ar
    21    22    24    1
    22    24    25    2
    23    24    26    1
    24    22    23   ar
    25    10    11    1
    26    11    13    1
    27    13    14    1
    28    11    12    1
    29     4     5   ar
    30     5     6   ar
    31    34    35   ar
    32    35    36   ar
    33    36    37   ar
    34    37    38   ar
    35    38    39   ar
    36    39    42    1
    37    42    43   ar
    38    43    44   ar
    39    44    45   ar
    40    45    46   ar
    41    46    47   ar
    42    39    40   ar
    43    40    41   ar
    44    41    33   ar
    45     6     1   ar
    46    41    36   ar
    47    12     7    1
    48    47    42   ar
    49    23    18   ar
    50    30    31    1
    51    26    27    1
    52    14    15    1
