@<TRIPOS>MOLECULE
*****
 46 51 0 0 0
SMALL
GASTEIGER

@<TRIPOS>ATOM
      1 C         -64.0558  -51.9036  -24.4523 C.ar    1  UNL1        0.0756
      2 C         -65.3605  -52.2503  -24.8335 C.ar    1  UNL1        0.1154
      3 N         -66.0699  -53.1536  -24.1085 N.ar    1  UNL1       -0.2278
      4 C         -65.5670  -53.7532  -22.9935 C.ar    1  UNL1        0.1323
      5 C         -64.2681  -53.4217  -22.5710 C.ar    1  UNL1        0.0414
      6 C         -63.5164  -52.4918  -23.2952 C.ar    1  UNL1        0.0393
      7 S         -61.8535  -52.1023  -22.7423 S.3     1  UNL1       -0.1401
      8 H         -62.3106  -51.0356  -21.9460 H       1  UNL1        0.1072
      9 N         -66.3732  -54.7093  -22.2686 N.pl3   1  UNL1       -0.2932
     10 C         -65.7988  -55.9965  -21.8399 C.3     1  UNL1        0.0923
     11 C         -66.6398  -56.6466  -20.7365 C.3     1  UNL1        0.0252
     12 C         -68.1118  -56.8055  -21.1708 C.3     1  UNL1        0.0472
     13 C         -68.6625  -55.5529  -21.9110 C.3     1  UNL1        0.0252
     14 C         -67.7284  -54.3402  -21.8305 C.3     1  UNL1        0.0923
     15 C         -68.9817  -57.1707  -19.9509 C.3     1  UNL1        0.2054
     16 O         -69.1468  -56.0501  -19.0795 O.3     1  UNL1       -0.4755
     17 C         -68.8015  -56.0130  -17.7182 C.ar    1  UNL1        0.1388
     18 C         -69.7670  -56.4059  -16.7858 C.ar    1  UNL1        0.0369
     19 C         -69.4839  -56.3830  -15.4197 C.ar    1  UNL1        0.0033
     20 C         -68.2283  -55.9707  -14.9701 C.ar    1  UNL1        0.0066
     21 C         -67.2368  -55.5793  -15.8864 C.ar    1  UNL1        0.0785
     22 C         -67.5362  -55.5898  -17.2618 C.ar    1  UNL1        0.0433
     23 C         -65.9071  -55.1430  -15.3954 C.2     1  UNL1        0.3381
     24 O         -65.8271  -54.2074  -14.5554 O.2     1  UNL1       -0.2451
     25 O         -64.7293  -55.7537  -15.8254 O.3     1  UNL1       -0.4771
     26 H         -64.7255  -56.5775  -16.4129 H       1  UNL1        0.2954
     27 C         -63.6811  -49.5351  -25.2696 C.2     1  UNL1        0.2840
     28 O         -64.6579  -49.0986  -24.6039 O.2     1  UNL1       -0.2665
     29 N         -63.3085  -50.9214  -25.1891 N.am    1  UNL1       -0.2763
     30 H         -62.4616  -51.2462  -25.7039 H       1  UNL1        0.1553
     31 C         -63.9997  -49.0087  -28.4465 C.3     1  UNL1        0.0345
     32 C         -63.0444  -48.3731  -27.4826 C.ar    1  UNL1        0.0202
     33 C         -62.9216  -48.5884  -26.1042 C.ar    1  UNL1        0.1946
     34 O         -62.0022  -47.7834  -25.6012 O.2     1  UNL1       -0.4492
     35 C         -61.5052  -47.0750  -26.5857 C.ar    1  UNL1        0.1452
     36 C         -60.5093  -46.1073  -26.5127 C.ar    1  UNL1        0.0375
     37 C         -60.1272  -45.4626  -27.7023 C.ar    1  UNL1        0.0031
     38 C         -60.7430  -45.7924  -28.9403 C.ar    1  UNL1        0.0002
     39 C         -61.7536  -46.7833  -28.9697 C.ar    1  UNL1        0.0028
     40 C         -62.1056  -47.4030  -27.7706 C.ar    1  UNL1        0.0337
     41 C         -60.3313  -45.1050  -30.1906 C.ar    1  UNL1        0.0000
     42 C         -61.2500  -44.3172  -30.9101 C.ar    1  UNL1        0.0000
     43 C         -60.8598  -43.6720  -32.0877 C.ar    1  UNL1        0.0000
     44 C         -59.5519  -43.8044  -32.5594 C.ar    1  UNL1        0.0000
     45 C         -58.6313  -44.5828  -31.8546 C.ar    1  UNL1        0.0000
     46 C         -59.0160  -45.2311  -30.6770 C.ar    1  UNL1        0.0000
@<TRIPOS>BOND
     1    31    32    1
     2    32    33   ar
     3    33    27    1
     4    27    28    2
     5    27    29   am
     6    29     1    1
     7     1     2   ar
     8     2     3   ar
     9     3     4   ar
    10     4     9    1
    11     9    10    1
    12    10    11    1
    13    11    12    1
    14    12    15    1
    15    15    16    1
    16    16    17    1
    17    17    18   ar
    18    18    19   ar
    19    19    20   ar
    20    20    21   ar
    21    21    23    1
    22    23    24    2
    23    23    25    1
    24    21    22   ar
    25    12    13    1
    26    13    14    1
    27     4     5   ar
    28     5     6   ar
    29     6     7    1
    30    33    34   ar
    31    34    35   ar
    32    35    36   ar
    33    36    37   ar
    34    37    38   ar
    35    38    41    1
    36    41    42   ar
    37    42    43   ar
    38    43    44   ar
    39    44    45   ar
    40    45    46   ar
    41    38    39   ar
    42    39    40   ar
    43    40    32   ar
    44     6     1   ar
    45    40    35   ar
    46    14     9    1
    47    46    41   ar
    48    22    17   ar
    49    29    30    1
    50    25    26    1
    51     7     8    1
@<TRIPOS>MOLECULE
*****
 46 51 0 0 0
SMALL
GASTEIGER

@<TRIPOS>ATOM
      1 C         -64.0379  -51.8635  -24.4973 C.ar    1  UNL1        0.0756
      2 C         -65.3307  -52.2472  -24.8835 C.ar    1  UNL1        0.1154
      3 N         -66.0196  -53.1650  -24.1569 N.ar    1  UNL1       -0.2278
      4 C         -65.5071  -53.7445  -23.0358 C.ar    1  UNL1        0.1323
      5 C         -64.2199  -53.3759  -22.6083 C.ar    1  UNL1        0.0414
      6 C         -63.4893  -52.4303  -23.3338 C.ar    1  UNL1        0.0393
      7 S         -61.8406  -51.9932  -22.7743 S.3     1  UNL1       -0.1401
      8 H         -62.3305  -50.9346  -21.9867 H       1  UNL1        0.1072
      9 N         -66.2914  -54.7178  -22.3096 N.pl3   1  UNL1       -0.2932
     10 C         -65.6965  -56.0036  -21.9054 C.3     1  UNL1        0.0923
     11 C         -66.5129  -56.6757  -20.7967 C.3     1  UNL1        0.0252
     12 C         -67.9898  -56.8454  -21.2094 C.3     1  UNL1        0.0472
     13 C         -68.5656  -55.5902  -21.9259 C.3     1  UNL1        0.0252
     14 C         -67.6432  -54.3685  -21.8457 C.3     1  UNL1        0.0923
     15 C         -68.8362  -57.2342  -19.9803 C.3     1  UNL1        0.2054
     16 O         -68.6632  -56.2966  -18.9158 O.3     1  UNL1       -0.4755
     17 C         -69.6969  -55.6751  -18.1953 C.ar    1  UNL1        0.1388
     18 C         -69.7876  -55.9334  -16.8239 C.ar    1  UNL1        0.0369
     19 C         -70.7976  -55.3502  -16.0579 C.ar    1  UNL1        0.0033
     20 C         -71.7270  -54.4968  -16.6551 C.ar    1  UNL1        0.0066
     21 C         -71.6531  -54.2131  -18.0298 C.ar    1  UNL1        0.0785
     22 C         -70.6409  -54.8186  -18.7982 C.ar    1  UNL1        0.0433
     23 C         -72.6471  -53.3049  -18.6518 C.2     1  UNL1        0.3381
     24 O         -73.8377  -53.6891  -18.8004 O.2     1  UNL1       -0.2451
     25 O         -72.3066  -52.0177  -19.0667 O.3     1  UNL1       -0.4771
     26 H         -71.4008  -51.6068  -18.8808 H       1  UNL1        0.2954
     27 C         -63.7019  -49.4829  -25.2963 C.2     1  UNL1        0.2840
     28 O         -64.6727  -49.0638  -24.6108 O.2     1  UNL1       -0.2665
     29 N         -63.3131  -50.8658  -25.2358 N.am    1  UNL1       -0.2763
     30 H         -62.4710  -51.1761  -25.7672 H       1  UNL1        0.1553
     31 C         -63.9888  -49.0157  -28.4855 C.3     1  UNL1        0.0345
     32 C         -63.0745  -48.3294  -27.5164 C.ar    1  UNL1        0.0202
     33 C         -62.9660  -48.5197  -26.1331 C.ar    1  UNL1        0.1946
     34 O         -62.0868  -47.6722  -25.6281 O.2     1  UNL1       -0.4492
     35 C         -61.6016  -46.9595  -26.6153 C.ar    1  UNL1        0.1452
     36 C         -60.6452  -45.9528  -26.5414 C.ar    1  UNL1        0.0375
     37 C         -60.2690  -45.3112  -27.7345 C.ar    1  UNL1        0.0031
     38 C         -60.8513  -45.6827  -28.9768 C.ar    1  UNL1        0.0002
     39 C         -61.8222  -46.7125  -29.0071 C.ar    1  UNL1        0.0028
     40 C         -62.1694  -47.3278  -27.8044 C.ar    1  UNL1        0.0337
     41 C         -60.4462  -44.9982  -30.2308 C.ar    1  UNL1        0.0000
     42 C         -59.1478  -45.1640  -30.7496 C.ar    1  UNL1        0.0000
     43 C         -58.7689  -44.5173  -31.9300 C.ar    1  UNL1        0.0000
     44 C         -59.6787  -43.7004  -32.6050 C.ar    1  UNL1        0.0000
     45 C         -60.9695  -43.5280  -32.1008 C.ar    1  UNL1        0.0000
     46 C         -61.3537  -44.1715  -30.9203 C.ar    1  UNL1        0.0000
@<TRIPOS>BOND
     1    31    32    1
     2    32    33   ar
     3    33    27    1
     4    27    28    2
     5    27    29   am
     6    29     1    1
     7     1     2   ar
     8     2     3   ar
     9     3     4   ar
    10     4     9    1
    11     9    10    1
    12    10    11    1
    13    11    12    1
    14    12    15    1
    15    15    16    1
    16    16    17    1
    17    17    18   ar
    18    18    19   ar
    19    19    20   ar
    20    20    21   ar
    21    21    23    1
    22    23    24    2
    23    23    25    1
    24    21    22   ar
    25    12    13    1
    26    13    14    1
    27     4     5   ar
    28     5     6   ar
    29     6     7    1
    30    33    34   ar
    31    34    35   ar
    32    35    36   ar
    33    36    37   ar
    34    37    38   ar
    35    38    41    1
    36    41    42   ar
    37    42    43   ar
    38    43    44   ar
    39    44    45   ar
    40    45    46   ar
    41    38    39   ar
    42    39    40   ar
    43    40    32   ar
    44     6     1   ar
    45    40    35   ar
    46    14     9    1
    47    46    41   ar
    48    22    17   ar
    49    29    30    1
    50    25    26    1
    51     7     8    1
@<TRIPOS>MOLECULE
*****
 46 51 0 0 0
SMALL
GASTEIGER

@<TRIPOS>ATOM
      1 C         -64.0447  -51.8406  -24.5179 C.ar    1  UNL1        0.0756
      2 C         -65.3441  -52.2137  -24.8922 C.ar    1  UNL1        0.1154
      3 N         -66.0309  -53.1314  -24.1635 N.ar    1  UNL1       -0.2278
      4 C         -65.5100  -53.7208  -23.0514 C.ar    1  UNL1        0.1323
      5 C         -64.2158  -53.3629  -22.6359 C.ar    1  UNL1        0.0414
      6 C         -63.4871  -52.4177  -23.3638 C.ar    1  UNL1        0.0393
      7 S         -61.8296  -51.9945  -22.8199 S.3     1  UNL1       -0.1401
      8 H         -62.3040  -50.9375  -22.0208 H       1  UNL1        0.1072
      9 N         -66.2926  -54.6932  -22.3223 N.pl3   1  UNL1       -0.2932
     10 C         -65.6283  -55.7449  -21.5329 C.3     1  UNL1        0.0923
     11 C         -66.5847  -56.3680  -20.5110 C.3     1  UNL1        0.0252
     12 C         -67.8648  -56.8991  -21.1891 C.3     1  UNL1        0.0472
     13 C         -68.4272  -55.9264  -22.2652 C.3     1  UNL1        0.0252
     14 C         -67.7549  -54.5488  -22.2494 C.3     1  UNL1        0.0923
     15 C         -68.9240  -57.2344  -20.1196 C.3     1  UNL1        0.2054
     16 O         -68.8660  -56.3140  -19.0280 O.3     1  UNL1       -0.4755
     17 C         -69.9170  -55.4877  -18.5963 C.ar    1  UNL1        0.1388
     18 C         -70.4957  -54.6213  -19.5292 C.ar    1  UNL1        0.0369
     19 C         -71.5381  -53.7720  -19.1566 C.ar    1  UNL1        0.0033
     20 C         -72.0176  -53.7829  -17.8457 C.ar    1  UNL1        0.0066
     21 C         -71.4600  -54.6504  -16.8905 C.ar    1  UNL1        0.0785
     22 C         -70.3977  -55.4922  -17.2707 C.ar    1  UNL1        0.0433
     23 C         -71.9785  -54.6517  -15.5009 C.2     1  UNL1        0.3381
     24 O         -73.1579  -55.0323  -15.2742 O.2     1  UNL1       -0.2451
     25 O         -71.1877  -54.2570  -14.4221 O.3     1  UNL1       -0.4771
     26 H         -70.2032  -54.0435  -14.5172 H       1  UNL1        0.2954
     27 C         -63.7099  -49.4602  -25.3179 C.2     1  UNL1        0.2840
     28 O         -64.6786  -49.0407  -24.6297 O.2     1  UNL1       -0.2665
     29 N         -63.3215  -50.8432  -25.2585 N.am    1  UNL1       -0.2763
     30 H         -62.4811  -51.1539  -25.7923 H       1  UNL1        0.1553
     31 C         -63.9636  -49.0331  -28.5155 C.3     1  UNL1        0.0345
     32 C         -63.0700  -48.3242  -27.5435 C.ar    1  UNL1        0.0202
     33 C         -62.9760  -48.4973  -26.1569 C.ar    1  UNL1        0.1946
     34 O         -62.1137  -47.6330  -25.6511 O.2     1  UNL1       -0.4492
     35 C         -61.6255  -46.9255  -26.6405 C.ar    1  UNL1        0.1452
     36 C         -60.6828  -45.9060  -26.5667 C.ar    1  UNL1        0.0375
     37 C         -60.3000  -45.2733  -27.7625 C.ar    1  UNL1        0.0031
     38 C         -60.8624  -45.6664  -29.0074 C.ar    1  UNL1        0.0002
     39 C         -61.8198  -46.7087  -29.0375 C.ar    1  UNL1        0.0028
     40 C         -62.1741  -47.3146  -27.8321 C.ar    1  UNL1        0.0337
     41 C         -60.4506  -44.9911  -30.2642 C.ar    1  UNL1        0.0000
     42 C         -61.3584  -44.1801  -30.9717 C.ar    1  UNL1        0.0000
     43 C         -60.9681  -43.5463  -32.1554 C.ar    1  UNL1        0.0000
     44 C         -59.6709  -43.7133  -32.6453 C.ar    1  UNL1        0.0000
     45 C         -58.7611  -44.5149  -31.9527 C.ar    1  UNL1        0.0000
     46 C         -59.1460  -45.1519  -30.7690 C.ar    1  UNL1        0.0000
@<TRIPOS>BOND
     1    31    32    1
     2    32    33   ar
     3    33    27    1
     4    27    28    2
     5    27    29   am
     6    29     1    1
     7     1     2   ar
     8     2     3   ar
     9     3     4   ar
    10     4     9    1
    11     9    10    1
    12    10    11    1
    13    11    12    1
    14    12    15    1
    15    15    16    1
    16    16    17    1
    17    17    18   ar
    18    18    19   ar
    19    19    20   ar
    20    20    21   ar
    21    21    23    1
    22    23    24    2
    23    23    25    1
    24    21    22   ar
    25    12    13    1
    26    13    14    1
    27     4     5   ar
    28     5     6   ar
    29     6     7    1
    30    33    34   ar
    31    34    35   ar
    32    35    36   ar
    33    36    37   ar
    34    37    38   ar
    35    38    41    1
    36    41    42   ar
    37    42    43   ar
    38    43    44   ar
    39    44    45   ar
    40    45    46   ar
    41    38    39   ar
    42    39    40   ar
    43    40    32   ar
    44     6     1   ar
    45    40    35   ar
    46    14     9    1
    47    46    41   ar
    48    22    17   ar
    49    29    30    1
    50    25    26    1
    51     7     8    1
