@<TRIPOS>MOLECULE
*****
 51 56 0 0 0
SMALL
GASTEIGER

@<TRIPOS>ATOM
      1 O          59.9774   86.7160   12.3153 O.2     1  UNL1       -0.2701
      2 C          60.6792   86.3351   11.3385 C.2     1  UNL1        0.2483
      3 N          61.6321   85.2736   11.5136 N.am    1  UNL1       -0.2945
      4 H          61.9875   84.7929   10.6577 H       1  UNL1        0.1501
      5 C          60.4745   86.9617   10.0126 C.ar    1  UNL1        0.0808
      6 C          61.0971   88.1872    9.7214 C.ar    1  UNL1        0.0080
      7 C          60.9097   88.8026    8.4812 C.ar    1  UNL1        0.0148
      8 C          60.1050   88.2003    7.5034 C.ar    1  UNL1        0.0502
      9 C          59.4936   86.9684    7.7850 C.ar    1  UNL1        0.0443
     10 C          59.6787   86.3491    9.0250 C.ar    1  UNL1        0.1457
     11 F          59.1216   85.1302    9.2331 F       1  UNL1       -0.2040
     12 N          59.9120   88.8421    6.2288 N.pl3   1  UNL1       -0.3040
     13 C          58.5688   89.2285    5.7836 C.3     1  UNL1        0.1123
     14 C          58.6196   90.5692    5.0459 C.3     1  UNL1        0.1136
     15 N          59.7115   90.5749    4.0615 N.pl3   1  UNL1       -0.2897
     16 C          61.0498   90.1742    4.5156 C.3     1  UNL1        0.1136
     17 C          60.9826   88.8242    5.2263 C.3     1  UNL1        0.1123
     18 C          59.5578   91.2187    2.7802 C.ar    1  UNL1        0.1318
     19 C          60.6073   91.9494    2.1995 C.ar    1  UNL1        0.0343
     20 C          60.4201   92.5559    0.9565 C.ar    1  UNL1        0.0083
     21 C          59.1867   92.4502    0.2968 C.ar    1  UNL1        0.0906
     22 C          58.1751   91.6828    0.8945 C.ar    1  UNL1        0.1041
     23 N          58.3810   91.1000    2.1051 N.ar    1  UNL1       -0.2292
     24 C          58.9887   93.0572   -1.0687 C.3     1  UNL1        0.4200
     25 F          60.0722   93.8466   -1.4134 F       1  UNL1       -0.1658
     26 F          58.8530   92.0459   -2.0012 F       1  UNL1       -0.1658
     27 F          57.8525   93.8475   -1.0914 F       1  UNL1       -0.1658
     28 C          61.8574   84.6366   12.8172 C.3     1  UNL1        0.1535
     29 C          62.3214   85.6489   13.8357 C.2     1  UNL1        0.2443
     30 O          62.6189   85.2751   15.0034 O.2     1  UNL1       -0.2730
     31 N          62.4153   87.0347   13.4683 N.am    1  UNL1       -0.2824
     32 H          61.9365   87.3356   12.5892 H       1  UNL1        0.1549
     33 C          63.0293   88.0509   14.2805 C.ar    1  UNL1        0.0566
     34 C          62.6094   88.2973   15.5990 C.ar    1  UNL1        0.0356
     35 C          63.2558   89.2764   16.3564 C.ar    1  UNL1        0.1033
     36 N          64.2931   89.9762   15.8262 N.ar    1  UNL1       -0.2102
     37 C          64.7359   89.7497   14.5612 C.ar    1  UNL1        0.2229
     38 O          65.8062   90.4905   14.0673 O.3     1  UNL1       -0.4919
     39 C          64.1149   88.7753   13.7692 C.ar    1  UNL1        0.0722
     40 H          66.1616   90.3468   13.1292 H       1  UNL1        0.2937
     41 C          60.5988   83.8826   13.2945 C.3     1  UNL1        0.0569
     42 C          60.7632   82.3863   13.3057 C.ar    1  UNL1       -0.0017
     43 C          61.6612   81.6585   14.0819 C.ar    1  UNL1        0.0681
     44 N          61.5067   80.3325   13.8665 N.ar    1  UNL1       -0.3523
     45 C          60.5209   80.2158   12.9602 C.ar    1  UNL1        0.0563
     46 C          60.0015   79.0379   12.4247 C.ar    1  UNL1        0.0170
     47 C          58.9627   79.1460   11.4821 C.ar    1  UNL1        0.0015
     48 C          58.4744   80.4143   11.0978 C.ar    1  UNL1        0.0001
     49 C          59.0193   81.5861   11.6533 C.ar    1  UNL1        0.0012
     50 C          60.0435   81.4475   12.5907 C.ar    1  UNL1        0.0131
     51 H          62.0453   79.5594   14.3167 H       1  UNL1        0.1660
@<TRIPOS>BOND
     1     1     2    2
     2     2     3   am
     3     3    28    1
     4    28    41    1
     5    41    42    1
     6    42    43   ar
     7    43    44   ar
     8    44    45   ar
     9    45    46   ar
    10    46    47   ar
    11    47    48   ar
    12    48    49   ar
    13    49    50   ar
    14    28    29    1
    15    29    30    2
    16    29    31   am
    17    31    33    1
    18    33    34   ar
    19    34    35   ar
    20    35    36   ar
    21    36    37   ar
    22    37    38    1
    23    37    39   ar
    24     2     5    1
    25     5     6   ar
    26     6     7   ar
    27     7     8   ar
    28     8    12    1
    29    12    13    1
    30    13    14    1
    31    14    15    1
    32    15    18    1
    33    18    19   ar
    34    19    20   ar
    35    20    21   ar
    36    21    24    1
    37    24    25    1
    38    24    26    1
    39    24    27    1
    40    21    22   ar
    41    22    23   ar
    42    15    16    1
    43    16    17    1
    44     8     9   ar
    45     9    10   ar
    46    10    11    1
    47    50    42   ar
    48    39    33   ar
    49    10     5   ar
    50    50    45   ar
    51    17    12    1
    52    23    18   ar
    53     3     4    1
    54    44    51    1
    55    31    32    1
    56    38    40    1
