@<TRIPOS>MOLECULE
*****
 38 42 0 0 0
SMALL
GASTEIGER

@<TRIPOS>ATOM
      1 C         -29.3250   50.3751   -8.6854 C.ar    1  UNL1        0.0674
      2 C         -30.2925   50.5257   -7.6612 C.ar    1  UNL1        0.0190
      3 C         -29.9913   51.2132   -6.4513 C.ar    1  UNL1        0.0375
      4 C         -28.6979   51.7562   -6.2716 C.ar    1  UNL1        0.0215
      5 C         -27.7695   51.5932   -7.2927 C.ar    1  UNL1        0.0769
      6 N         -26.5019   52.0236   -7.3292 N.ar    1  UNL1       -0.3373
      7 C         -26.0466   51.6008   -8.5363 C.ar    1  UNL1        0.1406
      8 N         -26.9836   50.9267   -9.2538 N.ar    1  UNL1       -0.2258
      9 C         -28.0605   50.9321   -8.4470 C.ar    1  UNL1        0.1116
     10 H         -25.9904   52.5392   -6.5793 H       1  UNL1        0.1674
     11 N         -30.2392   48.2753  -12.3916 N.3     1  UNL1       -0.2647
     12 C         -29.9406   49.7278  -12.3675 C.3     1  UNL1        0.0941
     13 C         -30.2962   50.3858  -11.0288 C.3     1  UNL1        0.1082
     14 N         -29.6400   49.6833   -9.9166 N.pl3   1  UNL1       -0.3034
     15 C         -29.2664   48.2725  -10.0892 C.3     1  UNL1        0.1082
     16 C         -30.2173   47.5916  -11.0775 C.3     1  UNL1        0.0941
     17 C         -31.4098   47.9061  -13.2188 C.3     1  UNL1        0.1200
     18 N         -30.4342   46.3887  -16.4294 N.ar    1  UNL1       -0.3128
     19 C         -30.6051   45.3373  -15.6050 C.ar    1  UNL1        0.1780
     20 N         -30.9734   45.7076  -14.3623 N.ar    1  UNL1       -0.2273
     21 C         -31.0554   47.0540  -14.4160 C.ar    1  UNL1        0.0885
     22 C         -30.7347   47.4810  -15.6982 C.ar    1  UNL1        0.0537
     23 C         -30.6004   48.8940  -16.1900 C.3     1  UNL1        0.0514
     24 C         -29.7838   44.8753  -18.2430 C.3     1  UNL1        0.0265
     25 C         -30.0503   46.3195  -17.8396 C.3     1  UNL1        0.1073
     26 C         -24.6656   51.8146   -9.0274 C.ar    1  UNL1        0.0339
     27 C         -23.5552   51.3758   -8.2919 C.ar    1  UNL1        0.0027
     28 C         -22.2591   51.5881   -8.7686 C.ar    1  UNL1       -0.0042
     29 C         -22.0286   52.2438   -9.9977 C.ar    1  UNL1       -0.0228
     30 C         -23.1570   52.6776  -10.7304 C.ar    1  UNL1       -0.0042
     31 C         -24.4517   52.4701  -10.2480 C.ar    1  UNL1        0.0027
     32 C         -20.5819   52.4620  -10.4873 C.3     1  UNL1        0.0189
     33 C         -20.5336   53.6937  -11.4174 C.3     1  UNL1        0.0044
     34 C         -20.0197   51.2552  -11.2772 C.3     1  UNL1        0.0044
     35 C         -19.6580   52.6994   -9.2731 C.3     1  UNL1        0.0044
     36 C         -31.0099   51.3672   -5.3777 C.2     1  UNL1        0.1736
     37 C         -31.5837   50.1868   -4.6526 C.3     1  UNL1        0.0773
     38 O         -31.4111   52.5191   -5.0573 O.2     1  UNL1       -0.2913
@<TRIPOS>BOND
     1    24    25    1
     2    25    18    1
     3    18    19   ar
     4    19    20   ar
     5    20    21   ar
     6    21    17    1
     7    17    11    1
     8    11    12    1
     9    12    13    1
    10    13    14    1
    11    14     1    1
    12     1     2   ar
    13     2     3   ar
    14     3    36    1
    15    36    37    1
    16    36    38    2
    17     3     4   ar
    18     4     5   ar
    19     5     6   ar
    20     6     7   ar
    21     7    26    1
    22    26    27   ar
    23    27    28   ar
    24    28    29   ar
    25    29    32    1
    26    32    33    1
    27    32    34    1
    28    32    35    1
    29    29    30   ar
    30    30    31   ar
    31     7     8   ar
    32     8     9   ar
    33    14    15    1
    34    15    16    1
    35    21    22   ar
    36    22    23    1
    37    22    18   ar
    38    16    11    1
    39     9     1   ar
    40     9     5   ar
    41    31    26   ar
    42     6    10    1
@<TRIPOS>MOLECULE
*****
 38 42 0 0 0
SMALL
GASTEIGER

@<TRIPOS>ATOM
      1 C         -28.3206   48.2221   -8.0996 C.ar    1  UNL1        0.0674
      2 C         -28.9946   47.8588   -6.9074 C.ar    1  UNL1        0.0190
      3 C         -28.5524   48.3202   -5.6351 C.ar    1  UNL1        0.0375
      4 C         -27.4160   49.1589   -5.5638 C.ar    1  UNL1        0.0215
      5 C         -26.7750   49.4987   -6.7491 C.ar    1  UNL1        0.0769
      6 N         -25.6937   50.2726   -6.9075 N.ar    1  UNL1       -0.3373
      7 C         -25.4860   50.2750   -8.2492 C.ar    1  UNL1        0.1406
      8 N         -26.3989   49.5349   -8.9319 N.ar    1  UNL1       -0.2258
      9 C         -27.1991   49.0526   -7.9636 C.ar    1  UNL1        0.1116
     10 H         -25.1353   50.7355   -6.1567 H       1  UNL1        0.1674
     11 N         -29.6687   46.8183  -11.9975 N.3     1  UNL1       -0.2647
     12 C         -29.7589   48.2456  -11.6049 C.3     1  UNL1        0.0941
     13 C         -29.8804   48.4386  -10.0885 C.3     1  UNL1        0.1082
     14 N         -28.7804   47.7573   -9.3905 N.pl3   1  UNL1       -0.3034
     15 C         -28.1210   46.6187  -10.0450 C.3     1  UNL1        0.1082
     16 C         -29.1032   45.9045  -10.9777 C.3     1  UNL1        0.0941
     17 C         -30.8888   46.2841  -12.6431 C.3     1  UNL1        0.1200
     18 N         -30.8116   46.7071  -16.3006 N.ar    1  UNL1       -0.3128
     19 C         -30.3495   45.4577  -16.1024 C.ar    1  UNL1        0.1780
     20 N         -30.3091   45.1209  -14.7977 N.ar    1  UNL1       -0.2273
     21 C         -30.7864   46.2043  -14.1491 C.ar    1  UNL1        0.0885
     22 C         -31.1115   47.1861  -15.0763 C.ar    1  UNL1        0.0537
     23 C         -31.5833   48.5863  -14.8057 C.3     1  UNL1        0.0514
     24 C         -29.6350   47.7478  -18.1808 C.3     1  UNL1        0.0265
     25 C         -30.9876   47.3609  -17.5977 C.3     1  UNL1        0.1073
     26 C         -24.3678   50.9796   -8.9180 C.ar    1  UNL1        0.0339
     27 C         -24.4576   51.3799  -10.2590 C.ar    1  UNL1        0.0027
     28 C         -23.3922   52.0412  -10.8753 C.ar    1  UNL1       -0.0042
     29 C         -22.2018   52.3272  -10.1718 C.ar    1  UNL1       -0.0228
     30 C         -22.1261   51.9212   -8.8198 C.ar    1  UNL1       -0.0042
     31 C         -23.1905   51.2540   -8.2082 C.ar    1  UNL1        0.0027
     32 C         -21.0469   53.0560  -10.8897 C.3     1  UNL1        0.0189
     33 C         -19.9788   52.0276  -11.3213 C.3     1  UNL1        0.0044
     34 C         -20.3486   54.1121   -9.9989 C.3     1  UNL1        0.0044
     35 C         -21.5935   53.7824  -12.1377 C.3     1  UNL1        0.0044
     36 C         -29.2621   47.9345   -4.3855 C.2     1  UNL1        0.1736
     37 C         -28.7285   48.2853   -3.0289 C.3     1  UNL1        0.0773
     38 O         -30.3463   47.2940   -4.4547 O.2     1  UNL1       -0.2913
@<TRIPOS>BOND
     1    24    25    1
     2    25    18    1
     3    18    19   ar
     4    19    20   ar
     5    20    21   ar
     6    21    17    1
     7    17    11    1
     8    11    12    1
     9    12    13    1
    10    13    14    1
    11    14     1    1
    12     1     2   ar
    13     2     3   ar
    14     3    36    1
    15    36    37    1
    16    36    38    2
    17     3     4   ar
    18     4     5   ar
    19     5     6   ar
    20     6     7   ar
    21     7    26    1
    22    26    27   ar
    23    27    28   ar
    24    28    29   ar
    25    29    32    1
    26    32    33    1
    27    32    34    1
    28    32    35    1
    29    29    30   ar
    30    30    31   ar
    31     7     8   ar
    32     8     9   ar
    33    14    15    1
    34    15    16    1
    35    21    22   ar
    36    22    23    1
    37    22    18   ar
    38    16    11    1
    39     9     1   ar
    40     9     5   ar
    41    31    26   ar
    42     6    10    1
@<TRIPOS>MOLECULE
*****
 38 42 0 0 0
SMALL
GASTEIGER

@<TRIPOS>ATOM
      1 C         -28.6834   50.7075   -8.9750 C.ar    1  UNL1        0.0674
      2 C         -29.8420   50.6294   -9.7868 C.ar    1  UNL1        0.0190
      3 C         -29.7870   50.8912  -11.1853 C.ar    1  UNL1        0.0375
      4 C         -28.5477   51.2360  -11.7730 C.ar    1  UNL1        0.0215
      5 C         -27.4283   51.3050  -10.9524 C.ar    1  UNL1        0.0769
      6 N         -26.1712   51.6097  -11.2990 N.ar    1  UNL1       -0.3373
      7 C         -25.4823   51.5363  -10.1315 C.ar    1  UNL1        0.1406
      8 N         -26.2621   51.1942   -9.0722 N.ar    1  UNL1       -0.2258
      9 C         -27.4858   51.0572   -9.6148 C.ar    1  UNL1        0.1116
     10 H         -25.8255   51.8693  -12.2492 H       1  UNL1        0.1674
     11 N         -28.8454   49.9074   -4.6954 N.3     1  UNL1       -0.2647
     12 C         -28.0020   49.1018   -5.6114 C.3     1  UNL1        0.0941
     13 C         -28.5461   49.0673   -7.0446 C.3     1  UNL1        0.1082
     14 N         -28.7441   50.4313   -7.5558 N.pl3   1  UNL1       -0.3034
     15 C         -28.9619   51.5243   -6.5979 C.3     1  UNL1        0.1082
     16 C         -29.6337   50.9893   -5.3302 C.3     1  UNL1        0.0941
     17 C         -29.6299   49.1091   -3.7267 C.3     1  UNL1        0.1200
     18 N         -27.8203   46.0406   -2.7925 N.ar    1  UNL1       -0.3128
     19 C         -28.8871   45.5976   -3.4852 C.ar    1  UNL1        0.1780
     20 N         -29.6774   46.6006   -3.9174 N.ar    1  UNL1       -0.2273
     21 C         -29.0664   47.7263   -3.4913 C.ar    1  UNL1        0.0885
     22 C         -27.9080   47.3862   -2.8044 C.ar    1  UNL1        0.0537
     23 C         -26.9685   48.3037   -2.0751 C.3     1  UNL1        0.0514
     24 C         -25.5275   45.2275   -3.0826 C.3     1  UNL1        0.0265
     25 C         -26.7721   45.2059   -2.2051 C.3     1  UNL1        0.1073
     26 C         -24.0356   51.8253   -9.9980 C.ar    1  UNL1        0.0339
     27 C         -23.3491   51.5687   -8.8025 C.ar    1  UNL1        0.0027
     28 C         -21.9849   51.8499   -8.6928 C.ar    1  UNL1       -0.0042
     29 C         -21.2598   52.3948   -9.7749 C.ar    1  UNL1       -0.0228
     30 C         -21.9634   52.6453  -10.9751 C.ar    1  UNL1       -0.0042
     31 C         -23.3291   52.3694  -11.0797 C.ar    1  UNL1        0.0027
     32 C         -19.7551   52.6945   -9.6121 C.3     1  UNL1        0.0189
     33 C         -19.0063   52.2830  -10.8984 C.3     1  UNL1        0.0044
     34 C         -19.1090   51.9333   -8.4291 C.3     1  UNL1        0.0044
     35 C         -19.5552   54.2052   -9.3632 C.3     1  UNL1        0.0044
     36 C         -31.0066   50.8099  -12.0337 C.2     1  UNL1        0.1736
     37 C         -31.5832   52.0161  -12.7127 C.3     1  UNL1        0.0773
     38 O         -31.5825   49.6996  -12.1959 O.2     1  UNL1       -0.2913
@<TRIPOS>BOND
     1    24    25    1
     2    25    18    1
     3    18    19   ar
     4    19    20   ar
     5    20    21   ar
     6    21    17    1
     7    17    11    1
     8    11    12    1
     9    12    13    1
    10    13    14    1
    11    14     1    1
    12     1     2   ar
    13     2     3   ar
    14     3    36    1
    15    36    37    1
    16    36    38    2
    17     3     4   ar
    18     4     5   ar
    19     5     6   ar
    20     6     7   ar
    21     7    26    1
    22    26    27   ar
    23    27    28   ar
    24    28    29   ar
    25    29    32    1
    26    32    33    1
    27    32    34    1
    28    32    35    1
    29    29    30   ar
    30    30    31   ar
    31     7     8   ar
    32     8     9   ar
    33    14    15    1
    34    15    16    1
    35    21    22   ar
    36    22    23    1
    37    22    18   ar
    38    16    11    1
    39     9     1   ar
    40     9     5   ar
    41    31    26   ar
    42     6    10    1
@<TRIPOS>MOLECULE
*****
 38 42 0 0 0
SMALL
GASTEIGER

@<TRIPOS>ATOM
      1 C         -19.6790   53.6892   -9.6297 C.ar    1  UNL1        0.0674
      2 C         -18.5792   53.2950  -10.4313 C.ar    1  UNL1        0.0190
      3 C         -18.6374   52.1320  -11.2507 C.ar    1  UNL1        0.0375
      4 C         -19.8200   51.3565  -11.2622 C.ar    1  UNL1        0.0215
      5 C         -20.8824   51.7671  -10.4661 C.ar    1  UNL1        0.0769
      6 N         -22.0810   51.1857  -10.3290 N.ar    1  UNL1       -0.3373
      7 C         -22.7316   51.9810   -9.4416 C.ar    1  UNL1        0.1406
      8 N         -21.9847   53.0369   -9.0238 N.ar    1  UNL1       -0.2258
      9 C         -20.8215   52.8781   -9.6812 C.ar    1  UNL1        0.1116
     10 H         -22.4104   50.3069  -10.7862 H       1  UNL1        0.1674
     11 N         -19.5116   57.2484   -7.1226 N.3     1  UNL1       -0.2647
     12 C         -20.3846   57.1736   -8.3191 C.3     1  UNL1        0.0941
     13 C         -19.8515   56.2083   -9.3847 C.3     1  UNL1        0.1082
     14 N         -19.6168   54.8773   -8.8060 N.pl3   1  UNL1       -0.3034
     15 C         -19.3604   54.7651   -7.3634 C.3     1  UNL1        0.1082
     16 C         -18.6960   56.0433   -6.8442 C.3     1  UNL1        0.0941
     17 C         -18.7445   58.5087   -7.0041 C.3     1  UNL1        0.1200
     18 N         -20.3101   61.5325   -5.6011 N.ar    1  UNL1       -0.3128
     19 C         -20.7601   60.5333   -4.8181 C.ar    1  UNL1        0.1780
     20 N         -20.2802   59.3289   -5.1875 N.ar    1  UNL1       -0.2273
     21 C         -19.4765   59.5886   -6.2405 C.ar    1  UNL1        0.0885
     22 C         -19.4810   60.9543   -6.4936 C.ar    1  UNL1        0.0537
     23 C         -18.8115   61.6821   -7.6243 C.3     1  UNL1        0.0514
     24 C         -19.7140   63.5983   -4.4266 C.3     1  UNL1        0.0265
     25 C         -20.6349   62.9514   -5.4527 C.3     1  UNL1        0.1073
     26 C         -24.1028   51.7255   -8.9431 C.ar    1  UNL1        0.0339
     27 C         -25.2049   52.4286   -9.4507 C.ar    1  UNL1        0.0027
     28 C         -26.4914   52.1771   -8.9672 C.ar    1  UNL1       -0.0042
     29 C         -26.7207   51.2125   -7.9618 C.ar    1  UNL1       -0.0228
     30 C         -25.6015   50.5087   -7.4617 C.ar    1  UNL1       -0.0042
     31 C         -24.3152   50.7672   -7.9422 C.ar    1  UNL1        0.0027
     32 C         -28.1562   50.9671   -7.4523 C.3     1  UNL1        0.0189
     33 C         -28.4719   51.9548   -6.3081 C.3     1  UNL1        0.0044
     34 C         -28.3703   49.5340   -6.9076 C.3     1  UNL1        0.0044
     35 C         -29.1567   51.1841   -8.6081 C.3     1  UNL1        0.0044
     36 C         -17.4793   51.7208  -12.0895 C.2     1  UNL1        0.1736
     37 C         -16.0923   51.6136  -11.5300 C.3     1  UNL1        0.0773
     38 O         -17.6552   51.4505  -13.3087 O.2     1  UNL1       -0.2913
@<TRIPOS>BOND
     1    24    25    1
     2    25    18    1
     3    18    19   ar
     4    19    20   ar
     5    20    21   ar
     6    21    17    1
     7    17    11    1
     8    11    12    1
     9    12    13    1
    10    13    14    1
    11    14     1    1
    12     1     2   ar
    13     2     3   ar
    14     3    36    1
    15    36    37    1
    16    36    38    2
    17     3     4   ar
    18     4     5   ar
    19     5     6   ar
    20     6     7   ar
    21     7    26    1
    22    26    27   ar
    23    27    28   ar
    24    28    29   ar
    25    29    32    1
    26    32    33    1
    27    32    34    1
    28    32    35    1
    29    29    30   ar
    30    30    31   ar
    31     7     8   ar
    32     8     9   ar
    33    14    15    1
    34    15    16    1
    35    21    22   ar
    36    22    23    1
    37    22    18   ar
    38    16    11    1
    39     9     1   ar
    40     9     5   ar
    41    31    26   ar
    42     6    10    1
@<TRIPOS>MOLECULE
*****
 38 42 0 0 0
SMALL
GASTEIGER

@<TRIPOS>ATOM
      1 C         -27.7109   51.1047  -10.2400 C.ar    1  UNL1        0.0674
      2 C         -28.4766   51.7181  -11.2622 C.ar    1  UNL1        0.0190
      3 C         -29.8897   51.5565  -11.3291 C.ar    1  UNL1        0.0375
      4 C         -30.5392   50.7664  -10.3525 C.ar    1  UNL1        0.0215
      5 C         -29.7630   50.1771   -9.3619 C.ar    1  UNL1        0.0769
      6 N         -30.1702   49.3988   -8.3510 N.ar    1  UNL1       -0.3373
      7 C         -29.0245   49.0944   -7.6894 C.ar    1  UNL1        0.1406
      8 N         -27.9202   49.6562   -8.2482 N.ar    1  UNL1       -0.2258
      9 C         -28.4114   50.3313   -9.3034 C.ar    1  UNL1        0.1116
     10 H         -31.1458   49.0858   -8.1511 H       1  UNL1        0.1674
     11 N         -23.3863   51.5974  -10.0483 N.3     1  UNL1       -0.2647
     12 C         -24.2125   51.4481   -8.8258 C.3     1  UNL1        0.0941
     13 C         -25.6518   51.9414   -9.0170 C.3     1  UNL1        0.1082
     14 N         -26.2761   51.2802  -10.1721 N.pl3   1  UNL1       -0.3034
     15 C         -25.4153   50.7577  -11.2424 C.3     1  UNL1        0.1082
     16 C         -24.1262   51.5794  -11.3316 C.3     1  UNL1        0.0941
     17 C         -22.3770   52.6776   -9.9751 C.3     1  UNL1        0.1200
     18 N         -18.8455   51.6570   -9.7533 N.ar    1  UNL1       -0.3128
     19 C         -19.2332   51.2432  -10.9750 C.ar    1  UNL1        0.1780
     20 N         -20.5220   51.5388  -11.2375 N.ar    1  UNL1       -0.2273
     21 C         -20.9567   52.1852  -10.1351 C.ar    1  UNL1        0.0885
     22 C         -19.9184   52.2728   -9.2167 C.ar    1  UNL1        0.0537
     23 C         -19.9708   52.8203   -7.8189 C.3     1  UNL1        0.0514
     24 C         -16.4511   51.5985  -10.2688 C.3     1  UNL1        0.0265
     25 C         -17.5094   51.4992   -9.1782 C.3     1  UNL1        0.1073
     26 C         -28.9583   48.2171   -6.4978 C.ar    1  UNL1        0.0339
     27 C         -28.7912   46.8304   -6.6229 C.ar    1  UNL1        0.0027
     28 C         -28.7337   46.0171   -5.4882 C.ar    1  UNL1       -0.0042
     29 C         -28.8386   46.5621   -4.1899 C.ar    1  UNL1       -0.0228
     30 C         -29.0032   47.9617   -4.0783 C.ar    1  UNL1       -0.0042
     31 C         -29.0673   48.7717   -5.2149 C.ar    1  UNL1        0.0027
     32 C         -28.7739   45.6294   -2.9627 C.3     1  UNL1        0.0189
     33 C         -29.2579   46.3924   -1.7104 C.3     1  UNL1        0.0044
     34 C         -27.3460   45.1074   -2.6714 C.3     1  UNL1        0.0044
     35 C         -29.6824   44.4036   -3.1994 C.3     1  UNL1        0.0044
     36 C         -30.6895   52.2009  -12.4056 C.2     1  UNL1        0.1736
     37 C         -31.0862   53.6456  -12.3433 C.3     1  UNL1        0.0773
     38 O         -31.0507   51.5239  -13.4065 O.2     1  UNL1       -0.2913
@<TRIPOS>BOND
     1    24    25    1
     2    25    18    1
     3    18    19   ar
     4    19    20   ar
     5    20    21   ar
     6    21    17    1
     7    17    11    1
     8    11    12    1
     9    12    13    1
    10    13    14    1
    11    14     1    1
    12     1     2   ar
    13     2     3   ar
    14     3    36    1
    15    36    37    1
    16    36    38    2
    17     3     4   ar
    18     4     5   ar
    19     5     6   ar
    20     6     7   ar
    21     7    26    1
    22    26    27   ar
    23    27    28   ar
    24    28    29   ar
    25    29    32    1
    26    32    33    1
    27    32    34    1
    28    32    35    1
    29    29    30   ar
    30    30    31   ar
    31     7     8   ar
    32     8     9   ar
    33    14    15    1
    34    15    16    1
    35    21    22   ar
    36    22    23    1
    37    22    18   ar
    38    16    11    1
    39     9     1   ar
    40     9     5   ar
    41    31    26   ar
    42     6    10    1
@<TRIPOS>MOLECULE
*****
 38 42 0 0 0
SMALL
GASTEIGER

@<TRIPOS>ATOM
      1 C         -28.0807   49.3905   -9.2647 C.ar    1  UNL1        0.0674
      2 C         -29.3394   49.5139   -9.9034 C.ar    1  UNL1        0.0190
      3 C         -29.5511   50.4557  -10.9501 C.ar    1  UNL1        0.0375
      4 C         -28.4797   51.2837  -11.3583 C.ar    1  UNL1        0.0215
      5 C         -27.2567   51.1406  -10.7141 C.ar    1  UNL1        0.0769
      6 N         -26.1227   51.8157  -10.9413 N.ar    1  UNL1       -0.3373
      7 C         -25.2453   51.2934  -10.0466 C.ar    1  UNL1        0.1406
      8 N         -25.7891   50.3167   -9.2736 N.ar    1  UNL1       -0.2258
      9 C         -27.0593   50.2410   -9.7112 C.ar    1  UNL1        0.1116
     10 H         -25.9752   52.5839  -11.6326 H       1  UNL1        0.1674
     11 N         -27.4421   46.4558   -6.1086 N.3     1  UNL1       -0.2647
     12 C         -28.7697   47.0715   -6.3486 C.3     1  UNL1        0.0941
     13 C         -28.6732   48.4667   -6.9776 C.3     1  UNL1        0.1082
     14 N         -27.8694   48.4250   -8.2078 N.pl3   1  UNL1       -0.3034
     15 C         -26.8730   47.3569   -8.3695 C.3     1  UNL1        0.1082
     16 C         -26.3506   46.9106   -7.0011 C.3     1  UNL1        0.0941
     17 C         -27.0427   46.4008   -4.6844 C.3     1  UNL1        0.1200
     18 N         -29.6636   45.6729   -2.2017 N.ar    1  UNL1       -0.3128
     19 C         -29.6280   44.5724   -2.9773 C.ar    1  UNL1        0.1780
     20 N         -28.7072   44.6591   -3.9581 N.ar    1  UNL1       -0.2273
     21 C         -28.1256   45.8637   -3.7766 C.ar    1  UNL1        0.0885
     22 C         -28.7055   46.4913   -2.6816 C.ar    1  UNL1        0.0537
     23 C         -28.4428   47.8798   -2.1721 C.3     1  UNL1        0.0514
     24 C         -31.4673   44.6871   -0.8684 C.3     1  UNL1        0.0265
     25 C         -30.5409   45.8823   -1.0496 C.3     1  UNL1        0.1073
     26 C         -23.8441   51.7478   -9.8911 C.ar    1  UNL1        0.0339
     27 C         -23.1327   51.5213   -8.7040 C.ar    1  UNL1        0.0027
     28 C         -21.8123   51.9592   -8.5731 C.ar    1  UNL1       -0.0042
     29 C         -21.1571   52.6360   -9.6250 C.ar    1  UNL1       -0.0228
     30 C         -21.8848   52.8546  -10.8170 C.ar    1  UNL1       -0.0042
     31 C         -23.2072   52.4217  -10.9426 C.ar    1  UNL1        0.0027
     32 C         -19.6996   53.1067   -9.4393 C.3     1  UNL1        0.0189
     33 C         -18.8821   52.7604  -10.7027 C.3     1  UNL1        0.0044
     34 C         -18.9971   52.4439   -8.2295 C.3     1  UNL1        0.0044
     35 C         -19.6765   54.6343   -9.2161 C.3     1  UNL1        0.0044
     36 C         -30.8751   50.5832  -11.6167 C.2     1  UNL1        0.1736
     37 C         -31.4110   51.9080  -12.0708 C.3     1  UNL1        0.0773
     38 O         -31.5780   49.5545  -11.8127 O.2     1  UNL1       -0.2913
@<TRIPOS>BOND
     1    24    25    1
     2    25    18    1
     3    18    19   ar
     4    19    20   ar
     5    20    21   ar
     6    21    17    1
     7    17    11    1
     8    11    12    1
     9    12    13    1
    10    13    14    1
    11    14     1    1
    12     1     2   ar
    13     2     3   ar
    14     3    36    1
    15    36    37    1
    16    36    38    2
    17     3     4   ar
    18     4     5   ar
    19     5     6   ar
    20     6     7   ar
    21     7    26    1
    22    26    27   ar
    23    27    28   ar
    24    28    29   ar
    25    29    32    1
    26    32    33    1
    27    32    34    1
    28    32    35    1
    29    29    30   ar
    30    30    31   ar
    31     7     8   ar
    32     8     9   ar
    33    14    15    1
    34    15    16    1
    35    21    22   ar
    36    22    23    1
    37    22    18   ar
    38    16    11    1
    39     9     1   ar
    40     9     5   ar
    41    31    26   ar
    42     6    10    1
@<TRIPOS>MOLECULE
*****
 38 42 0 0 0
SMALL
GASTEIGER

@<TRIPOS>ATOM
      1 C         -26.8548   51.2482  -10.3190 C.ar    1  UNL1        0.0674
      2 C         -27.8004   51.8035  -11.2163 C.ar    1  UNL1        0.0190
      3 C         -29.1890   51.5079  -11.1076 C.ar    1  UNL1        0.0375
      4 C         -29.6300   50.6413  -10.0807 C.ar    1  UNL1        0.0215
      5 C         -28.6804   50.1115   -9.2155 C.ar    1  UNL1        0.0769
      6 N         -28.8789   49.2794   -8.1852 N.ar    1  UNL1       -0.3373
      7 C         -27.6337   49.0746   -7.6844 C.ar    1  UNL1        0.1406
      8 N         -26.6683   49.7503   -8.3618 N.ar    1  UNL1       -0.2258
      9 C         -27.3529   50.3940   -9.3249 C.ar    1  UNL1        0.1116
     10 H         -29.7869   48.8702   -7.8723 H       1  UNL1        0.1674
     11 N         -22.6080   52.1546  -10.6710 N.3     1  UNL1       -0.2647
     12 C         -23.2035   51.6734   -9.4009 C.3     1  UNL1        0.0941
     13 C         -24.6868   52.0373   -9.2642 C.3     1  UNL1        0.1082
     14 N         -25.4461   51.5598  -10.4291 N.pl3   1  UNL1       -0.3034
     15 C         -24.7413   51.3600  -11.7030 C.3     1  UNL1        0.1082
     16 C         -23.5499   52.3166  -11.8030 C.3     1  UNL1        0.0941
     17 C         -21.6832   53.3000  -10.5167 C.3     1  UNL1        0.1200
     18 N         -18.2843   52.3158   -9.4962 N.ar    1  UNL1       -0.3128
     19 C         -18.2674   52.2190  -10.8395 C.ar    1  UNL1        0.1780
     20 N         -19.4489   52.5499  -11.3979 N.ar    1  UNL1       -0.2273
     21 C         -20.2376   52.8882  -10.3560 C.ar    1  UNL1        0.0885
     22 C         -19.5174   52.7573   -9.1755 C.ar    1  UNL1        0.0537
     23 C         -20.0168   52.9315   -7.7696 C.3     1  UNL1        0.0514
     24 C         -16.2577   50.9704   -9.2042 C.3     1  UNL1        0.0265
     25 C         -17.1595   52.0398   -8.6021 C.3     1  UNL1        0.1073
     26 C         -27.3322   48.1862   -6.5382 C.ar    1  UNL1        0.0339
     27 C         -28.0115   48.3158   -5.3182 C.ar    1  UNL1        0.0027
     28 C         -27.7126   47.4711   -4.2461 C.ar    1  UNL1       -0.0042
     29 C         -26.7266   46.4665   -4.3575 C.ar    1  UNL1       -0.0228
     30 C         -26.0522   46.3448   -5.5938 C.ar    1  UNL1       -0.0042
     31 C         -26.3483   47.1953   -6.6620 C.ar    1  UNL1        0.0027
     32 C         -26.4237   45.5566   -3.1489 C.3     1  UNL1        0.0189
     33 C         -27.6423   45.5381   -2.2006 C.3     1  UNL1        0.0044
     34 C         -25.1976   46.0252   -2.3284 C.3     1  UNL1        0.0044
     35 C         -26.1369   44.1224   -3.6437 C.3     1  UNL1        0.0044
     36 C         -30.1781   52.0918  -12.0533 C.2     1  UNL1        0.1736
     37 C         -31.4876   51.4225  -12.3460 C.3     1  UNL1        0.0773
     38 O         -29.9209   53.1822  -12.6326 O.2     1  UNL1       -0.2913
@<TRIPOS>BOND
     1    24    25    1
     2    25    18    1
     3    18    19   ar
     4    19    20   ar
     5    20    21   ar
     6    21    17    1
     7    17    11    1
     8    11    12    1
     9    12    13    1
    10    13    14    1
    11    14     1    1
    12     1     2   ar
    13     2     3   ar
    14     3    36    1
    15    36    37    1
    16    36    38    2
    17     3     4   ar
    18     4     5   ar
    19     5     6   ar
    20     6     7   ar
    21     7    26    1
    22    26    27   ar
    23    27    28   ar
    24    28    29   ar
    25    29    32    1
    26    32    33    1
    27    32    34    1
    28    32    35    1
    29    29    30   ar
    30    30    31   ar
    31     7     8   ar
    32     8     9   ar
    33    14    15    1
    34    15    16    1
    35    21    22   ar
    36    22    23    1
    37    22    18   ar
    38    16    11    1
    39     9     1   ar
    40     9     5   ar
    41    31    26   ar
    42     6    10    1
@<TRIPOS>MOLECULE
*****
 38 42 0 0 0
SMALL
GASTEIGER

@<TRIPOS>ATOM
      1 C         -27.1611   50.7776   -9.9310 C.ar    1  UNL1        0.0674
      2 C         -25.9405   51.1733  -10.5319 C.ar    1  UNL1        0.0190
      3 C         -24.7451   51.3010   -9.7689 C.ar    1  UNL1        0.0375
      4 C         -24.7808   51.0260   -8.3822 C.ar    1  UNL1        0.0215
      5 C         -25.9917   50.6400   -7.8201 C.ar    1  UNL1        0.0769
      6 N         -26.2455   50.3353   -6.5410 N.ar    1  UNL1       -0.3373
      7 C         -27.5690   50.0330   -6.5323 C.ar    1  UNL1        0.1406
      8 N         -28.1477   50.1347   -7.7579 N.ar    1  UNL1       -0.2258
      9 C         -27.1334   50.5223   -8.5526 C.ar    1  UNL1        0.1116
     10 H         -25.5730   50.3587   -5.7429 H       1  UNL1        0.1674
     11 N         -30.8043   50.4036  -12.2908 N.3     1  UNL1       -0.2647
     12 C         -30.7928   50.1723  -10.8260 C.3     1  UNL1        0.0941
     13 C         -29.4276   49.7027  -10.3089 C.3     1  UNL1        0.1082
     14 N         -28.3705   50.6407  -10.7136 N.pl3   1  UNL1       -0.3034
     15 C         -28.5789   51.4744  -11.9058 C.3     1  UNL1        0.1082
     16 C         -29.4997   50.7574  -12.8971 C.3     1  UNL1        0.0941
     17 C         -31.5465   49.3831  -13.0645 C.3     1  UNL1        0.1200
     18 N         -30.4251   48.6503  -16.4949 N.ar    1  UNL1       -0.3128
     19 C         -30.9379   49.8933  -16.5730 C.ar    1  UNL1        0.1780
     20 N         -31.4038   50.3371  -15.3885 N.ar    1  UNL1       -0.2273
     21 C         -31.1538   49.3315  -14.5233 C.ar    1  UNL1        0.0885
     22 C         -30.5357   48.2882  -15.2007 C.ar    1  UNL1        0.0537
     23 C         -30.1652   46.9351  -14.6640 C.3     1  UNL1        0.0514
     24 C         -28.7026   48.6972  -18.2365 C.3     1  UNL1        0.0265
     25 C         -29.8306   47.8967  -17.5992 C.3     1  UNL1        0.1073
     26 C         -28.3303   49.6586   -5.3181 C.ar    1  UNL1        0.0339
     27 C         -27.7914   48.7868   -4.3609 C.ar    1  UNL1        0.0027
     28 C         -28.5244   48.4419   -3.2225 C.ar    1  UNL1       -0.0042
     29 C         -29.8197   48.9583   -3.0006 C.ar    1  UNL1       -0.0228
     30 C         -30.3492   49.8385   -3.9718 C.ar    1  UNL1       -0.0042
     31 C         -29.6167   50.1763   -5.1126 C.ar    1  UNL1        0.0027
     32 C         -30.5977   48.5499   -1.7325 C.3     1  UNL1        0.0189
     33 C         -31.5839   49.6746   -1.3492 C.3     1  UNL1        0.0044
     34 C         -29.6795   48.2950   -0.5126 C.3     1  UNL1        0.0044
     35 C         -31.3841   47.2498   -2.0076 C.3     1  UNL1        0.0044
     36 C         -23.4659   51.7188  -10.4038 C.2     1  UNL1        0.1736
     37 C         -22.9363   53.1159  -10.2777 C.3     1  UNL1        0.0773
     38 O         -22.7965   50.8829  -11.0700 O.2     1  UNL1       -0.2913
@<TRIPOS>BOND
     1    24    25    1
     2    25    18    1
     3    18    19   ar
     4    19    20   ar
     5    20    21   ar
     6    21    17    1
     7    17    11    1
     8    11    12    1
     9    12    13    1
    10    13    14    1
    11    14     1    1
    12     1     2   ar
    13     2     3   ar
    14     3    36    1
    15    36    37    1
    16    36    38    2
    17     3     4   ar
    18     4     5   ar
    19     5     6   ar
    20     6     7   ar
    21     7    26    1
    22    26    27   ar
    23    27    28   ar
    24    28    29   ar
    25    29    32    1
    26    32    33    1
    27    32    34    1
    28    32    35    1
    29    29    30   ar
    30    30    31   ar
    31     7     8   ar
    32     8     9   ar
    33    14    15    1
    34    15    16    1
    35    21    22   ar
    36    22    23    1
    37    22    18   ar
    38    16    11    1
    39     9     1   ar
    40     9     5   ar
    41    31    26   ar
    42     6    10    1
@<TRIPOS>MOLECULE
*****
 38 42 0 0 0
SMALL
GASTEIGER

@<TRIPOS>ATOM
      1 C         -28.3589   50.4164   -8.8344 C.ar    1  UNL1        0.0674
      2 C         -28.9168   50.5879   -7.5433 C.ar    1  UNL1        0.0190
      3 C         -30.2803   50.2759   -7.2768 C.ar    1  UNL1        0.0375
      4 C         -31.0918   49.7845   -8.3256 C.ar    1  UNL1        0.0215
      5 C         -30.5178   49.6264   -9.5813 C.ar    1  UNL1        0.0769
      6 N         -31.0995   49.1804  -10.7020 N.ar    1  UNL1       -0.3373
      7 C         -30.1069   49.2258  -11.6271 C.ar    1  UNL1        0.1406
      8 N         -28.9288   49.6798  -11.1239 N.ar    1  UNL1       -0.2258
      9 C         -29.2143   49.9291   -9.8329 C.ar    1  UNL1        0.1116
     10 H         -32.0964   48.8953  -10.8233 H       1  UNL1        0.1674
     11 N         -24.1731   51.3161   -9.6409 N.3     1  UNL1       -0.2647
     12 C         -24.6560   50.9935   -8.2763 C.3     1  UNL1        0.0941
     13 C         -26.1312   51.3559   -8.0665 C.3     1  UNL1        0.1082
     14 N         -26.9701   50.7265   -9.0967 N.pl3   1  UNL1       -0.3034
     15 C         -26.3643   50.3743  -10.3885 C.3     1  UNL1        0.1082
     16 C         -25.2048   51.3232  -10.7041 C.3     1  UNL1        0.0941
     17 C         -23.2631   52.4816   -9.7071 C.3     1  UNL1        0.1200
     18 N         -19.6798   51.7654  -10.1648 N.ar    1  UNL1       -0.3128
     19 C         -20.2446   51.3822  -11.3260 C.ar    1  UNL1        0.1780
     20 N         -21.5785   51.5765  -11.3424 N.ar    1  UNL1       -0.2273
     21 C         -21.8598   52.1248  -10.1414 C.ar    1  UNL1        0.0885
     22 C         -20.6851   52.2562   -9.4120 C.ar    1  UNL1        0.0537
     23 C         -20.5313   52.7247   -7.9931 C.3     1  UNL1        0.0514
     24 C         -17.4174   51.9865  -11.0789 C.3     1  UNL1        0.0265
     25 C         -18.2547   51.6965   -9.8403 C.3     1  UNL1        0.1073
     26 C         -30.2768   48.8528  -13.0505 C.ar    1  UNL1        0.0339
     27 C         -30.3944   49.8294  -14.0500 C.ar    1  UNL1        0.0027
     28 C         -30.5569   49.4601  -15.3877 C.ar    1  UNL1       -0.0042
     29 C         -30.6048   48.1023  -15.7724 C.ar    1  UNL1       -0.0228
     30 C         -30.4815   47.1285  -14.7552 C.ar    1  UNL1       -0.0042
     31 C         -30.3260   47.5007  -13.4175 C.ar    1  UNL1        0.0027
     32 C         -30.7892   47.7362  -17.2598 C.3     1  UNL1        0.0189
     33 C         -31.5804   46.4146  -17.3701 C.3     1  UNL1        0.0044
     34 C         -29.4480   47.5441  -18.0085 C.3     1  UNL1        0.0044
     35 C         -31.5683   48.8617  -17.9741 C.3     1  UNL1        0.0044
     36 C         -30.8624   50.4595   -5.9199 C.2     1  UNL1        0.1736
     37 C         -31.0884   51.8195   -5.3304 C.3     1  UNL1        0.0773
     38 O         -31.1805   49.4498   -5.2343 O.2     1  UNL1       -0.2913
@<TRIPOS>BOND
     1    24    25    1
     2    25    18    1
     3    18    19   ar
     4    19    20   ar
     5    20    21   ar
     6    21    17    1
     7    17    11    1
     8    11    12    1
     9    12    13    1
    10    13    14    1
    11    14     1    1
    12     1     2   ar
    13     2     3   ar
    14     3    36    1
    15    36    37    1
    16    36    38    2
    17     3     4   ar
    18     4     5   ar
    19     5     6   ar
    20     6     7   ar
    21     7    26    1
    22    26    27   ar
    23    27    28   ar
    24    28    29   ar
    25    29    32    1
    26    32    33    1
    27    32    34    1
    28    32    35    1
    29    29    30   ar
    30    30    31   ar
    31     7     8   ar
    32     8     9   ar
    33    14    15    1
    34    15    16    1
    35    21    22   ar
    36    22    23    1
    37    22    18   ar
    38    16    11    1
    39     9     1   ar
    40     9     5   ar
    41    31    26   ar
    42     6    10    1
