@<TRIPOS>MOLECULE
*****
 36 39 0 0 0
SMALL
GASTEIGER

@<TRIPOS>ATOM
      1 C         -27.7493   49.4648   -3.9866 C.2     1  UNL1        0.2669
      2 O         -26.7980   49.3102   -3.1754 O.2     1  UNL1       -0.2682
      3 N         -29.0856   49.0401   -3.6212 N.am    1  UNL1       -0.2685
      4 C         -27.1259   49.3007   -6.4359 C.ar    1  UNL1       -0.0000
      5 C         -27.4474   50.0753   -5.2913 C.ar    1  UNL1        0.1307
      6 N         -27.4143   51.4311   -5.3527 N.ar    1  UNL1       -0.2396
      7 C         -27.1331   52.1036   -6.4927 C.ar    1  UNL1        0.0989
      8 C         -26.8380   51.4052   -7.6640 C.ar    1  UNL1        0.0189
      9 C         -26.5482   52.1066   -8.8445 C.ar    1  UNL1        0.0015
     10 C         -26.2242   51.4147  -10.0104 C.ar    1  UNL1        0.0000
     11 C         -26.1804   50.0218  -10.0059 C.ar    1  UNL1       -0.0000
     12 C         -26.4679   49.3097   -8.8385 C.ar    1  UNL1       -0.0002
     13 C         -26.8141   49.9864   -7.6454 C.ar    1  UNL1       -0.0009
     14 C         -25.5888   47.3193   -6.3047 C.3     1  UNL1        0.0051
     15 C         -27.0416   47.7838   -6.3320 C.3     1  UNL1        0.0280
     16 C         -30.3107   49.6850   -4.1519 C.3     1  UNL1        0.1007
     17 C         -31.5383   49.2714   -3.3256 C.3     1  UNL1        0.0265
     18 C         -30.4550   49.5016   -5.6623 C.ar    1  UNL1        0.0234
     19 C         -30.5467   48.2282   -6.2700 C.ar    1  UNL1        0.0019
     20 C         -30.6645   48.1084   -7.6574 C.ar    1  UNL1        0.0295
     21 C         -30.7000   49.2484   -8.4601 C.ar    1  UNL1        0.1424
     22 F         -30.8106   49.1276   -9.8058 F       1  UNL1       -0.2041
     23 C         -30.6241   50.5134   -7.8763 C.ar    1  UNL1        0.0590
     24 C         -30.5068   50.6438   -6.4892 C.ar    1  UNL1        0.1399
     25 F         -30.4425   51.8883   -5.9550 F       1  UNL1       -0.2044
     26 C         -29.2349   47.8980   -2.7022 C.3     1  UNL1        0.1207
     27 C         -28.4292   46.7139   -3.1723 C.ar    1  UNL1       -0.0021
     28 C         -28.9139   45.8884   -4.1981 C.ar    1  UNL1       -0.0026
     29 C         -28.1503   44.8142   -4.6578 C.ar    1  UNL1       -0.0001
     30 C         -26.8974   44.5520   -4.0998 C.ar    1  UNL1        0.0064
     31 C         -26.3955   45.3626   -3.0666 C.ar    1  UNL1        0.0752
     32 C         -27.1718   46.4410   -2.6063 C.ar    1  UNL1        0.0038
     33 C         -25.0685   45.0900   -2.4715 C.2     1  UNL1        0.3380
     34 O         -24.9105   44.1220   -1.6791 O.2     1  UNL1       -0.2451
     35 O         -23.9795   45.9005   -2.7824 O.3     1  UNL1       -0.4771
     36 H         -23.0666   45.7220   -2.3810 H       1  UNL1        0.2954
@<TRIPOS>BOND
     1    14    15    1
     2    15     4    1
     3     4     5   ar
     4     5     1    1
     5     1     2    2
     6     1     3   am
     7     3    26    1
     8    26    27    1
     9    27    28   ar
    10    28    29   ar
    11    29    30   ar
    12    30    31   ar
    13    31    33    1
    14    33    34    2
    15    33    35    1
    16    31    32   ar
    17     3    16    1
    18    16    17    1
    19    16    18    1
    20    18    19   ar
    21    19    20   ar
    22    20    21   ar
    23    21    22    1
    24    21    23   ar
    25    23    24   ar
    26    24    25    1
    27     5     6   ar
    28     6     7   ar
    29     7     8   ar
    30     8     9   ar
    31     9    10   ar
    32    10    11   ar
    33    11    12   ar
    34    12    13   ar
    35    13     4   ar
    36    32    27   ar
    37    24    18   ar
    38    13     8   ar
    39    35    36    1
@<TRIPOS>MOLECULE
*****
 36 39 0 0 0
SMALL
GASTEIGER

@<TRIPOS>ATOM
      1 C         -29.4827   51.0734   -5.9763 C.2     1  UNL1        0.2669
      2 O         -29.7595   52.0914   -5.2879 O.2     1  UNL1       -0.2682
      3 N         -30.1794   49.8264   -5.7330 N.am    1  UNL1       -0.2685
      4 C         -27.0769   50.9115   -6.7515 C.ar    1  UNL1       -0.0000
      5 C         -28.4415   51.2041   -7.0082 C.ar    1  UNL1        0.1307
      6 N         -28.8198   51.6911   -8.2177 N.ar    1  UNL1       -0.2396
      7 C         -27.9488   51.8695   -9.2377 C.ar    1  UNL1        0.0989
      8 C         -26.5965   51.5727   -9.0649 C.ar    1  UNL1        0.0189
      9 C         -25.6968   51.7580  -10.1259 C.ar    1  UNL1        0.0015
     10 C         -24.3401   51.4908   -9.9503 C.ar    1  UNL1        0.0000
     11 C         -23.8707   51.0445   -8.7164 C.ar    1  UNL1       -0.0000
     12 C         -24.7547   50.8539   -7.6511 C.ar    1  UNL1       -0.0002
     13 C         -26.1386   51.1032   -7.8064 C.ar    1  UNL1       -0.0009
     14 C         -26.2346   51.6943   -4.5190 C.3     1  UNL1        0.0051
     15 C         -26.6369   50.4850   -5.3574 C.3     1  UNL1        0.0280
     16 C         -30.4113   48.8122   -6.7894 C.3     1  UNL1        0.1007
     17 C         -31.4978   47.8176   -6.3523 C.3     1  UNL1        0.0265
     18 C         -29.1103   48.1764   -7.2786 C.ar    1  UNL1        0.0234
     19 C         -28.2373   47.4700   -6.4195 C.ar    1  UNL1        0.0019
     20 C         -27.0512   46.9161   -6.9087 C.ar    1  UNL1        0.0295
     21 C         -26.7179   47.0488   -8.2566 C.ar    1  UNL1        0.1424
     22 F         -25.5644   46.5132   -8.7262 F       1  UNL1       -0.2041
     23 C         -27.5741   47.7311   -9.1214 C.ar    1  UNL1        0.0590
     24 C         -28.7634   48.2882   -8.6417 C.ar    1  UNL1        0.1399
     25 F         -29.5754   48.9385   -9.5113 F       1  UNL1       -0.2044
     26 C         -30.6553   49.5403   -4.3682 C.3     1  UNL1        0.1207
     27 C         -29.7642   48.5368   -3.6817 C.ar    1  UNL1       -0.0021
     28 C         -30.2256   47.2368   -3.4257 C.ar    1  UNL1       -0.0026
     29 C         -29.3868   46.2976   -2.8234 C.ar    1  UNL1       -0.0001
     30 C         -28.0812   46.6448   -2.4701 C.ar    1  UNL1        0.0064
     31 C         -27.6008   47.9437   -2.7117 C.ar    1  UNL1        0.0752
     32 C         -28.4525   48.8856   -3.3158 C.ar    1  UNL1        0.0038
     33 C         -26.2182   48.3175   -2.3399 C.2     1  UNL1        0.3380
     34 O         -25.9615   49.4781   -1.9192 O.2     1  UNL1       -0.2451
     35 O         -25.1860   47.3891   -2.4499 O.3     1  UNL1       -0.4771
     36 H         -24.2362   47.6346   -2.1973 H       1  UNL1        0.2954
@<TRIPOS>BOND
     1    14    15    1
     2    15     4    1
     3     4     5   ar
     4     5     1    1
     5     1     2    2
     6     1     3   am
     7     3    26    1
     8    26    27    1
     9    27    28   ar
    10    28    29   ar
    11    29    30   ar
    12    30    31   ar
    13    31    33    1
    14    33    34    2
    15    33    35    1
    16    31    32   ar
    17     3    16    1
    18    16    17    1
    19    16    18    1
    20    18    19   ar
    21    19    20   ar
    22    20    21   ar
    23    21    22    1
    24    21    23   ar
    25    23    24   ar
    26    24    25    1
    27     5     6   ar
    28     6     7   ar
    29     7     8   ar
    30     8     9   ar
    31     9    10   ar
    32    10    11   ar
    33    11    12   ar
    34    12    13   ar
    35    13     4   ar
    36    32    27   ar
    37    24    18   ar
    38    13     8   ar
    39    35    36    1
@<TRIPOS>MOLECULE
*****
 36 39 0 0 0
SMALL
GASTEIGER

@<TRIPOS>ATOM
      1 C         -30.4194   50.3750   -7.4404 C.2     1  UNL1        0.2669
      2 O         -31.5540   50.2359   -6.9110 O.2     1  UNL1       -0.2682
      3 N         -30.2694   50.2292   -8.8743 N.am    1  UNL1       -0.2685
      4 C         -28.7223   49.7132   -5.6807 C.ar    1  UNL1       -0.0000
      5 C         -29.2818   50.6785   -6.5575 C.ar    1  UNL1        0.1307
      6 N         -28.8187   51.9548   -6.5533 N.ar    1  UNL1       -0.2396
      7 C         -27.7889   52.3551   -5.7723 C.ar    1  UNL1        0.0989
      8 C         -27.1712   51.4502   -4.9083 C.ar    1  UNL1        0.0189
      9 C         -26.1025   51.8694   -4.1010 C.ar    1  UNL1        0.0015
     10 C         -25.5005   50.9775   -3.2150 C.ar    1  UNL1        0.0000
     11 C         -25.9632   49.6662   -3.1227 C.ar    1  UNL1       -0.0000
     12 C         -27.0255   49.2340   -3.9211 C.ar    1  UNL1       -0.0002
     13 C         -27.6447   50.1142   -4.8393 C.ar    1  UNL1       -0.0009
     14 C         -28.3915   47.2825   -6.2179 C.3     1  UNL1        0.0051
     15 C         -29.3252   48.3173   -5.5976 C.3     1  UNL1        0.0280
     16 C         -29.2249   50.9376   -9.6525 C.3     1  UNL1        0.1007
     17 C         -29.4364   50.7220  -11.1590 C.3     1  UNL1        0.0265
     18 C         -27.8160   50.6308   -9.1459 C.ar    1  UNL1        0.0234
     19 C         -27.3739   49.3158   -8.8729 C.ar    1  UNL1        0.0019
     20 C         -26.0800   49.0838   -8.3984 C.ar    1  UNL1        0.0295
     21 C         -25.2052   50.1508   -8.1947 C.ar    1  UNL1        0.1424
     22 F         -23.9522   49.9217   -7.7305 F       1  UNL1       -0.2041
     23 C         -25.6201   51.4538   -8.4714 C.ar    1  UNL1        0.0590
     24 C         -26.9123   51.6961   -8.9472 C.ar    1  UNL1        0.1399
     25 F         -27.2800   52.9739   -9.2124 F       1  UNL1       -0.2044
     26 C         -31.1778   49.3146   -9.5879 C.3     1  UNL1        0.1207
     27 C         -30.7685   47.8776   -9.3885 C.ar    1  UNL1       -0.0021
     28 C         -31.5838   47.0032   -8.6543 C.ar    1  UNL1       -0.0026
     29 C         -31.2218   45.6637   -8.5016 C.ar    1  UNL1       -0.0001
     30 C         -30.0444   45.1832   -9.0784 C.ar    1  UNL1        0.0064
     31 C         -29.2096   46.0437   -9.8127 C.ar    1  UNL1        0.0752
     32 C         -29.5790   47.3926   -9.9595 C.ar    1  UNL1        0.0038
     33 C         -27.9609   45.5403  -10.4266 C.2     1  UNL1        0.3380
     34 O         -27.1123   44.9194   -9.7307 O.2     1  UNL1       -0.2451
     35 O         -27.7114   45.7466  -11.7810 O.3     1  UNL1       -0.4771
     36 H         -26.8600   45.4054  -12.2112 H       1  UNL1        0.2954
@<TRIPOS>BOND
     1    14    15    1
     2    15     4    1
     3     4     5   ar
     4     5     1    1
     5     1     2    2
     6     1     3   am
     7     3    26    1
     8    26    27    1
     9    27    28   ar
    10    28    29   ar
    11    29    30   ar
    12    30    31   ar
    13    31    33    1
    14    33    34    2
    15    33    35    1
    16    31    32   ar
    17     3    16    1
    18    16    17    1
    19    16    18    1
    20    18    19   ar
    21    19    20   ar
    22    20    21   ar
    23    21    22    1
    24    21    23   ar
    25    23    24   ar
    26    24    25    1
    27     5     6   ar
    28     6     7   ar
    29     7     8   ar
    30     8     9   ar
    31     9    10   ar
    32    10    11   ar
    33    11    12   ar
    34    12    13   ar
    35    13     4   ar
    36    32    27   ar
    37    24    18   ar
    38    13     8   ar
    39    35    36    1
@<TRIPOS>MOLECULE
*****
 36 39 0 0 0
SMALL
GASTEIGER

@<TRIPOS>ATOM
      1 C         -30.5107   50.6512   -8.5005 C.2     1  UNL1        0.2669
      2 O         -31.5800   50.6663   -9.1663 O.2     1  UNL1       -0.2682
      3 N         -29.2485   50.9290   -9.1558 N.am    1  UNL1       -0.2685
      4 C         -30.4668   49.0191   -6.5642 C.ar    1  UNL1       -0.0000
      5 C         -30.5996   50.3403   -7.0647 C.ar    1  UNL1        0.1307
      6 N         -30.8896   51.3642   -6.2217 N.ar    1  UNL1       -0.2396
      7 C         -31.0118   51.1966   -4.8846 C.ar    1  UNL1        0.0989
      8 C         -30.8629   49.9293   -4.3204 C.ar    1  UNL1        0.0189
      9 C         -30.9892   49.7601   -2.9329 C.ar    1  UNL1        0.0015
     10 C         -30.8703   48.4919   -2.3669 C.ar    1  UNL1        0.0000
     11 C         -30.6318   47.3848   -3.1789 C.ar    1  UNL1       -0.0000
     12 C         -30.5023   47.5378   -4.5618 C.ar    1  UNL1       -0.0002
     13 C         -30.6038   48.8154   -5.1607 C.ar    1  UNL1       -0.0009
     14 C         -31.5823   47.1285   -7.7838 C.3     1  UNL1        0.0051
     15 C         -30.2661   47.8553   -7.5255 C.3     1  UNL1        0.0280
     16 C         -28.0911   51.5344   -8.4542 C.3     1  UNL1        0.1007
     17 C         -27.0095   51.9538   -9.4618 C.3     1  UNL1        0.0265
     18 C         -27.5966   50.6678   -7.2965 C.ar    1  UNL1        0.0234
     19 C         -27.1218   49.3488   -7.4807 C.ar    1  UNL1        0.0019
     20 C         -26.6914   48.5882   -6.3901 C.ar    1  UNL1        0.0295
     21 C         -26.7193   49.1269   -5.1038 C.ar    1  UNL1        0.1424
     22 F         -26.3045   48.3844   -4.0481 F       1  UNL1       -0.2041
     23 C         -27.1721   50.4316   -4.9052 C.ar    1  UNL1        0.0590
     24 C         -27.6041   51.2006   -5.9899 C.ar    1  UNL1        0.1399
     25 F         -28.0312   52.4671   -5.7617 F       1  UNL1       -0.2044
     26 C         -29.0985   50.5686  -10.5766 C.3     1  UNL1        0.1207
     27 C         -29.3757   49.1034  -10.7973 C.ar    1  UNL1       -0.0021
     28 C         -30.4517   48.6984  -11.6015 C.ar    1  UNL1       -0.0026
     29 C         -30.6850   47.3421  -11.8350 C.ar    1  UNL1       -0.0001
     30 C         -29.8491   46.3770  -11.2694 C.ar    1  UNL1        0.0064
     31 C         -28.7692   46.7607  -10.4552 C.ar    1  UNL1        0.0752
     32 C         -28.5422   48.1287  -10.2217 C.ar    1  UNL1        0.0038
     33 C         -27.8798   45.7427   -9.8534 C.2     1  UNL1        0.3380
     34 O         -27.7659   45.6545   -8.6007 O.2     1  UNL1       -0.2451
     35 O         -27.1601   44.8703  -10.6660 O.3     1  UNL1       -0.4771
     36 H         -26.5491   44.1693  -10.2640 H       1  UNL1        0.2954
@<TRIPOS>BOND
     1    14    15    1
     2    15     4    1
     3     4     5   ar
     4     5     1    1
     5     1     2    2
     6     1     3   am
     7     3    26    1
     8    26    27    1
     9    27    28   ar
    10    28    29   ar
    11    29    30   ar
    12    30    31   ar
    13    31    33    1
    14    33    34    2
    15    33    35    1
    16    31    32   ar
    17     3    16    1
    18    16    17    1
    19    16    18    1
    20    18    19   ar
    21    19    20   ar
    22    20    21   ar
    23    21    22    1
    24    21    23   ar
    25    23    24   ar
    26    24    25    1
    27     5     6   ar
    28     6     7   ar
    29     7     8   ar
    30     8     9   ar
    31     9    10   ar
    32    10    11   ar
    33    11    12   ar
    34    12    13   ar
    35    13     4   ar
    36    32    27   ar
    37    24    18   ar
    38    13     8   ar
    39    35    36    1
@<TRIPOS>MOLECULE
*****
 36 39 0 0 0
SMALL
GASTEIGER

@<TRIPOS>ATOM
      1 C         -28.8388   46.2310   -6.9913 C.2     1  UNL1        0.2669
      2 O         -29.6224   45.5252   -6.3023 O.2     1  UNL1       -0.2682
      3 N         -27.7810   46.9786   -6.3418 N.am    1  UNL1       -0.2685
      4 C         -29.9058   47.2065   -9.0709 C.ar    1  UNL1       -0.0000
      5 C         -29.0459   46.2652   -8.4480 C.ar    1  UNL1        0.1307
      6 N         -28.4338   45.3052   -9.1876 N.ar    1  UNL1       -0.2396
      7 C         -28.5628   45.2265  -10.5322 C.ar    1  UNL1        0.0989
      8 C         -29.3684   46.1392  -11.2138 C.ar    1  UNL1        0.0189
      9 C         -29.4984   46.0548  -12.6087 C.ar    1  UNL1        0.0015
     10 C         -30.3246   46.9457  -13.2917 C.ar    1  UNL1        0.0000
     11 C         -31.0310   47.9206  -12.5897 C.ar    1  UNL1       -0.0000
     12 C         -30.9106   48.0179  -11.2010 C.ar    1  UNL1       -0.0002
     13 C         -30.0676   47.1361  -10.4847 C.ar    1  UNL1       -0.0009
     14 C         -30.2478   49.6327   -8.5208 C.3     1  UNL1        0.0051
     15 C         -30.6880   48.2023   -8.2250 C.3     1  UNL1        0.0280
     16 C         -26.4974   47.3053   -7.0082 C.3     1  UNL1        0.1007
     17 C         -25.3112   46.9205   -6.1107 C.3     1  UNL1        0.0265
     18 C         -26.4686   48.7375   -7.5410 C.ar    1  UNL1        0.0234
     19 C         -26.3113   49.8613   -6.6974 C.ar    1  UNL1        0.0019
     20 C         -26.3039   51.1542   -7.2279 C.ar    1  UNL1        0.0295
     21 C         -26.4452   51.3502   -8.6016 C.ar    1  UNL1        0.1424
     22 F         -26.4412   52.6063   -9.1117 F       1  UNL1       -0.2041
     23 C         -26.5880   50.2521   -9.4504 C.ar    1  UNL1        0.0590
     24 C         -26.5959   48.9547   -8.9294 C.ar    1  UNL1        0.1399
     25 F         -26.7296   47.9104   -9.7837 F       1  UNL1       -0.2044
     26 C         -28.0008   47.4599   -4.9667 C.3     1  UNL1        0.1207
     27 C         -29.2225   48.3393   -4.8880 C.ar    1  UNL1       -0.0021
     28 C         -30.4612   47.8005   -4.5087 C.ar    1  UNL1       -0.0026
     29 C         -31.5837   48.6232   -4.4005 C.ar    1  UNL1       -0.0001
     30 C         -31.4828   49.9897   -4.6696 C.ar    1  UNL1        0.0064
     31 C         -30.2528   50.5491   -5.0574 C.ar    1  UNL1        0.0752
     32 C         -29.1270   49.7137   -5.1676 C.ar    1  UNL1        0.0038
     33 C         -30.1396   51.9964   -5.3436 C.2     1  UNL1        0.3380
     34 O         -31.0900   52.7781   -5.0686 O.2     1  UNL1       -0.2451
     35 O         -28.9801   52.5100   -5.9190 O.3     1  UNL1       -0.4771
     36 H         -28.8921   53.4994   -6.1182 H       1  UNL1        0.2954
@<TRIPOS>BOND
     1    14    15    1
     2    15     4    1
     3     4     5   ar
     4     5     1    1
     5     1     2    2
     6     1     3   am
     7     3    26    1
     8    26    27    1
     9    27    28   ar
    10    28    29   ar
    11    29    30   ar
    12    30    31   ar
    13    31    33    1
    14    33    34    2
    15    33    35    1
    16    31    32   ar
    17     3    16    1
    18    16    17    1
    19    16    18    1
    20    18    19   ar
    21    19    20   ar
    22    20    21   ar
    23    21    22    1
    24    21    23   ar
    25    23    24   ar
    26    24    25    1
    27     5     6   ar
    28     6     7   ar
    29     7     8   ar
    30     8     9   ar
    31     9    10   ar
    32    10    11   ar
    33    11    12   ar
    34    12    13   ar
    35    13     4   ar
    36    32    27   ar
    37    24    18   ar
    38    13     8   ar
    39    35    36    1
@<TRIPOS>MOLECULE
*****
 36 39 0 0 0
SMALL
GASTEIGER

@<TRIPOS>ATOM
      1 C         -26.1392   47.4386   -6.2537 C.2     1  UNL1        0.2669
      2 O         -25.5511   46.4443   -6.7559 O.2     1  UNL1       -0.2682
      3 N         -26.3851   47.4865   -4.8264 N.am    1  UNL1       -0.2685
      4 C         -27.8430   48.5457   -7.7657 C.ar    1  UNL1       -0.0000
      5 C         -26.5597   48.5186   -7.1607 C.ar    1  UNL1        0.1307
      6 N         -25.6408   49.4706   -7.4651 N.ar    1  UNL1       -0.2396
      7 C         -25.9074   50.5023   -8.2989 C.ar    1  UNL1        0.0989
      8 C         -27.1596   50.6085   -8.9050 C.ar    1  UNL1        0.0189
      9 C         -27.4323   51.6810   -9.7682 C.ar    1  UNL1        0.0015
     10 C         -28.6715   51.7764  -10.3991 C.ar    1  UNL1        0.0000
     11 C         -29.6432   50.8018  -10.1798 C.ar    1  UNL1       -0.0000
     12 C         -29.3868   49.7290   -9.3220 C.ar    1  UNL1       -0.0002
     13 C         -28.1431   49.6158   -8.6573 C.ar    1  UNL1       -0.0009
     14 C         -28.6906   46.3298   -8.5887 C.3     1  UNL1        0.0051
     15 C         -28.8269   47.4097   -7.5198 C.3     1  UNL1        0.0280
     16 C         -26.4720   48.7556   -4.0647 C.3     1  UNL1        0.1007
     17 C         -26.3709   48.4860   -2.5554 C.3     1  UNL1        0.0265
     18 C         -27.6667   49.6078   -4.4917 C.ar    1  UNL1        0.0234
     19 C         -29.0031   49.1631   -4.3677 C.ar    1  UNL1        0.0019
     20 C         -30.0641   49.9720   -4.7838 C.ar    1  UNL1        0.0295
     21 C         -29.8153   51.2345   -5.3216 C.ar    1  UNL1        0.1424
     22 F         -30.8472   52.0145   -5.7276 F       1  UNL1       -0.2041
     23 C         -28.5035   51.6949   -5.4392 C.ar    1  UNL1        0.0590
     24 C         -27.4353   50.8935   -5.0251 C.ar    1  UNL1        0.1399
     25 F         -26.1738   51.3752   -5.1473 F       1  UNL1       -0.2044
     26 C         -26.5854   46.2183   -4.1035 C.3     1  UNL1        0.1207
     27 C         -28.0422   45.9997   -3.7839 C.ar    1  UNL1       -0.0021
     28 C         -28.9555   45.7005   -4.8060 C.ar    1  UNL1       -0.0026
     29 C         -30.2973   45.4619   -4.5041 C.ar    1  UNL1       -0.0001
     30 C         -30.7416   45.5195   -3.1815 C.ar    1  UNL1        0.0064
     31 C         -29.8446   45.8239   -2.1427 C.ar    1  UNL1        0.0752
     32 C         -28.4951   46.0664   -2.4548 C.ar    1  UNL1        0.0038
     33 C         -30.3094   45.8861   -0.7393 C.2     1  UNL1        0.3380
     34 O         -31.5383   45.8035   -0.4692 O.2     1  UNL1       -0.2451
     35 O         -29.3925   46.0353    0.2982 O.3     1  UNL1       -0.4771
     36 H         -29.7003   46.0782    1.2625 H       1  UNL1        0.2954
@<TRIPOS>BOND
     1    14    15    1
     2    15     4    1
     3     4     5   ar
     4     5     1    1
     5     1     2    2
     6     1     3   am
     7     3    26    1
     8    26    27    1
     9    27    28   ar
    10    28    29   ar
    11    29    30   ar
    12    30    31   ar
    13    31    33    1
    14    33    34    2
    15    33    35    1
    16    31    32   ar
    17     3    16    1
    18    16    17    1
    19    16    18    1
    20    18    19   ar
    21    19    20   ar
    22    20    21   ar
    23    21    22    1
    24    21    23   ar
    25    23    24   ar
    26    24    25    1
    27     5     6   ar
    28     6     7   ar
    29     7     8   ar
    30     8     9   ar
    31     9    10   ar
    32    10    11   ar
    33    11    12   ar
    34    12    13   ar
    35    13     4   ar
    36    32    27   ar
    37    24    18   ar
    38    13     8   ar
    39    35    36    1
@<TRIPOS>MOLECULE
*****
 36 39 0 0 0
SMALL
GASTEIGER

@<TRIPOS>ATOM
      1 C         -30.1837   49.5007   -4.8653 C.2     1  UNL1        0.2669
      2 O         -30.5187   50.3828   -4.0306 O.2     1  UNL1       -0.2682
      3 N         -30.0798   48.1164   -4.4497 N.am    1  UNL1       -0.2685
      4 C         -28.6053   50.3087   -6.6737 C.ar    1  UNL1       -0.0000
      5 C         -29.9040   49.9308   -6.2447 C.ar    1  UNL1        0.1307
      6 N         -30.9588   50.0263   -7.0942 N.ar    1  UNL1       -0.2396
      7 C         -30.8264   50.4253   -8.3802 C.ar    1  UNL1        0.0989
      8 C         -29.5729   50.7824   -8.8781 C.ar    1  UNL1        0.0189
      9 C         -29.4399   51.1945  -10.2130 C.ar    1  UNL1        0.0015
     10 C         -28.1951   51.5801  -10.7077 C.ar    1  UNL1        0.0000
     11 C         -27.0778   51.5641   -9.8751 C.ar    1  UNL1       -0.0000
     12 C         -27.1944   51.1549   -8.5441 C.ar    1  UNL1       -0.0002
     13 C         -28.4428   50.7444   -8.0205 C.ar    1  UNL1       -0.0009
     14 C         -27.1102   51.7447   -5.2564 C.3     1  UNL1        0.0051
     15 C         -27.4477   50.3198   -5.6843 C.3     1  UNL1        0.0280
     16 C         -30.3113   46.9778   -5.3709 C.3     1  UNL1        0.1007
     17 C         -30.4267   45.6631   -4.5840 C.3     1  UNL1        0.0265
     18 C         -29.3122   46.9549   -6.5272 C.ar    1  UNL1        0.0234
     19 C         -27.9138   46.9006   -6.3251 C.ar    1  UNL1        0.0019
     20 C         -27.0370   46.8946   -7.4133 C.ar    1  UNL1        0.0295
     21 C         -27.5341   46.9353   -8.7158 C.ar    1  UNL1        0.1424
     22 F         -26.6799   46.9332   -9.7685 F       1  UNL1       -0.2041
     23 C         -28.9116   46.9757   -8.9341 C.ar    1  UNL1        0.0590
     24 C         -29.7970   46.9813   -7.8521 C.ar    1  UNL1        0.1399
     25 F         -31.1294   47.0139   -8.1008 F       1  UNL1       -0.2044
     26 C         -29.7001   47.8262   -3.0559 C.3     1  UNL1        0.1207
     27 C         -28.2018   47.7612   -2.9036 C.ar    1  UNL1       -0.0021
     28 C         -27.4574   48.9340   -2.7067 C.ar    1  UNL1       -0.0026
     29 C         -26.0744   48.8689   -2.5289 C.ar    1  UNL1       -0.0001
     30 C         -25.4204   47.6353   -2.5461 C.ar    1  UNL1        0.0064
     31 C         -26.1462   46.4484   -2.7483 C.ar    1  UNL1        0.0752
     32 C         -27.5387   46.5220   -2.9301 C.ar    1  UNL1        0.0038
     33 C         -25.4588   45.1382   -2.7672 C.2     1  UNL1        0.3380
     34 O         -25.2102   44.5631   -3.8615 O.2     1  UNL1       -0.2451
     35 O         -25.0782   44.5276   -1.5749 O.3     1  UNL1       -0.4771
     36 H         -24.6064   43.6310   -1.5769 H       1  UNL1        0.2954
@<TRIPOS>BOND
     1    14    15    1
     2    15     4    1
     3     4     5   ar
     4     5     1    1
     5     1     2    2
     6     1     3   am
     7     3    26    1
     8    26    27    1
     9    27    28   ar
    10    28    29   ar
    11    29    30   ar
    12    30    31   ar
    13    31    33    1
    14    33    34    2
    15    33    35    1
    16    31    32   ar
    17     3    16    1
    18    16    17    1
    19    16    18    1
    20    18    19   ar
    21    19    20   ar
    22    20    21   ar
    23    21    22    1
    24    21    23   ar
    25    23    24   ar
    26    24    25    1
    27     5     6   ar
    28     6     7   ar
    29     7     8   ar
    30     8     9   ar
    31     9    10   ar
    32    10    11   ar
    33    11    12   ar
    34    12    13   ar
    35    13     4   ar
    36    32    27   ar
    37    24    18   ar
    38    13     8   ar
    39    35    36    1
@<TRIPOS>MOLECULE
*****
 36 39 0 0 0
SMALL
GASTEIGER

@<TRIPOS>ATOM
      1 C         -29.8318   50.3075   -9.3339 C.2     1  UNL1        0.2669
      2 O         -30.6456   51.2608   -9.4592 O.2     1  UNL1       -0.2682
      3 N         -30.2920   49.0262   -8.8377 N.am    1  UNL1       -0.2685
      4 C         -27.4083   50.7233   -8.7269 C.ar    1  UNL1       -0.0000
      5 C         -28.4271   50.5507   -9.6994 C.ar    1  UNL1        0.1307
      6 N         -28.1395   50.6791  -11.0201 N.ar    1  UNL1       -0.2396
      7 C         -26.8880   50.9192  -11.4747 C.ar    1  UNL1        0.0989
      8 C         -25.8320   51.0692  -10.5751 C.ar    1  UNL1        0.0189
      9 C         -24.5352   51.3169  -11.0510 C.ar    1  UNL1        0.0015
     10 C         -23.4817   51.4964  -10.1561 C.ar    1  UNL1        0.0000
     11 C         -23.7143   51.4373   -8.7833 C.ar    1  UNL1       -0.0000
     12 C         -24.9998   51.1901   -8.2946 C.ar    1  UNL1       -0.0002
     13 C         -26.0842   50.9894   -9.1808 C.ar    1  UNL1       -0.0009
     14 C         -27.7055   52.1083   -6.6534 C.3     1  UNL1        0.0051
     15 C         -27.7567   50.7029   -7.2446 C.3     1  UNL1        0.0280
     16 C         -29.6573   47.7400   -9.2136 C.3     1  UNL1        0.1007
     17 C         -30.7055   46.6180   -9.2696 C.3     1  UNL1        0.0265
     18 C         -28.4238   47.4321   -8.3653 C.ar    1  UNL1        0.0234
     19 C         -28.5056   47.1055   -6.9921 C.ar    1  UNL1        0.0019
     20 C         -27.3491   46.8440   -6.2524 C.ar    1  UNL1        0.0295
     21 C         -26.0972   46.8959   -6.8651 C.ar    1  UNL1        0.1424
     22 F         -24.9775   46.6452   -6.1430 F       1  UNL1       -0.2041
     23 C         -25.9987   47.2034   -8.2224 C.ar    1  UNL1        0.0590
     24 C         -27.1499   47.4659   -8.9711 C.ar    1  UNL1        0.1399
     25 F         -27.0180   47.7546  -10.2893 F       1  UNL1       -0.2044
     26 C         -31.4245   49.0015   -7.8953 C.3     1  UNL1        0.1207
     27 C         -31.0631   49.6722   -6.5946 C.ar    1  UNL1       -0.0021
     28 C         -31.4244   51.0076   -6.3607 C.ar    1  UNL1       -0.0026
     29 C         -31.1217   51.6159   -5.1414 C.ar    1  UNL1       -0.0001
     30 C         -30.4561   50.9000   -4.1443 C.ar    1  UNL1        0.0064
     31 C         -30.0792   49.5629   -4.3600 C.ar    1  UNL1        0.0752
     32 C         -30.3845   48.9576   -5.5921 C.ar    1  UNL1        0.0038
     33 C         -29.3741   48.7990   -3.3071 C.2     1  UNL1        0.3380
     34 O         -30.0069   48.3434   -2.3162 O.2     1  UNL1       -0.2451
     35 O         -28.0029   48.5746   -3.4014 O.3     1  UNL1       -0.4771
     36 H         -27.5107   48.0523   -2.6863 H       1  UNL1        0.2954
@<TRIPOS>BOND
     1    14    15    1
     2    15     4    1
     3     4     5   ar
     4     5     1    1
     5     1     2    2
     6     1     3   am
     7     3    26    1
     8    26    27    1
     9    27    28   ar
    10    28    29   ar
    11    29    30   ar
    12    30    31   ar
    13    31    33    1
    14    33    34    2
    15    33    35    1
    16    31    32   ar
    17     3    16    1
    18    16    17    1
    19    16    18    1
    20    18    19   ar
    21    19    20   ar
    22    20    21   ar
    23    21    22    1
    24    21    23   ar
    25    23    24   ar
    26    24    25    1
    27     5     6   ar
    28     6     7   ar
    29     7     8   ar
    30     8     9   ar
    31     9    10   ar
    32    10    11   ar
    33    11    12   ar
    34    12    13   ar
    35    13     4   ar
    36    32    27   ar
    37    24    18   ar
    38    13     8   ar
    39    35    36    1
@<TRIPOS>MOLECULE
*****
 36 39 0 0 0
SMALL
GASTEIGER

@<TRIPOS>ATOM
      1 C         -27.9776   48.5665   -7.1806 C.2     1  UNL1        0.2669
      2 O         -27.4909   47.7256   -6.3788 O.2     1  UNL1       -0.2682
      3 N         -29.3871   48.8959   -7.1133 N.am    1  UNL1       -0.2685
      4 C         -26.1281   50.1764   -7.8146 C.ar    1  UNL1       -0.0000
      5 C         -27.0733   49.1785   -8.1673 C.ar    1  UNL1        0.1307
      6 N         -27.2208   48.8053   -9.4643 N.ar    1  UNL1       -0.2396
      7 C         -26.4579   49.3111  -10.4607 C.ar    1  UNL1        0.0989
      8 C         -25.4874   50.2737  -10.1811 C.ar    1  UNL1        0.0189
      9 C         -24.6974   50.7947  -11.2175 C.ar    1  UNL1        0.0015
     10 C         -23.7463   51.7776  -10.9486 C.ar    1  UNL1        0.0000
     11 C         -23.5811   52.2519   -9.6487 C.ar    1  UNL1       -0.0000
     12 C         -24.3593   51.7417   -8.6063 C.ar    1  UNL1       -0.0002
     13 C         -25.3214   50.7333   -8.8487 C.ar    1  UNL1       -0.0009
     14 C         -27.0528   51.8093   -6.1459 C.3     1  UNL1        0.0051
     15 C         -26.0515   50.6825   -6.3804 C.3     1  UNL1        0.0280
     16 C         -29.9271   50.2173   -7.5144 C.3     1  UNL1        0.1007
     17 C         -31.1649   50.5706   -6.6755 C.3     1  UNL1        0.0265
     18 C         -30.1154   50.3320   -9.0268 C.ar    1  UNL1        0.0234
     19 C         -31.0521   49.5487   -9.7396 C.ar    1  UNL1        0.0019
     20 C         -31.1808   49.6784  -11.1251 C.ar    1  UNL1        0.0295
     21 C         -30.3881   50.5907  -11.8214 C.ar    1  UNL1        0.1424
     22 F         -30.5135   50.7106  -13.1660 F       1  UNL1       -0.2041
     23 C         -29.4680   51.3813  -11.1324 C.ar    1  UNL1        0.0590
     24 C         -29.3323   51.2594   -9.7462 C.ar    1  UNL1        0.1399
     25 F         -28.4334   52.0484   -9.1077 F       1  UNL1       -0.2044
     26 C         -30.3305   47.8625   -6.6514 C.3     1  UNL1        0.1207
     27 C         -30.2084   46.6077   -7.4777 C.ar    1  UNL1       -0.0021
     28 C         -30.7566   45.4003   -7.0191 C.ar    1  UNL1       -0.0026
     29 C         -30.6751   44.2475   -7.8020 C.ar    1  UNL1       -0.0001
     30 C         -30.0467   44.2866   -9.0483 C.ar    1  UNL1        0.0064
     31 C         -29.4850   45.4844   -9.5242 C.ar    1  UNL1        0.0752
     32 C         -29.5679   46.6409   -8.7286 C.ar    1  UNL1        0.0038
     33 C         -28.8180   45.5321  -10.8441 C.2     1  UNL1        0.3380
     34 O         -29.4711   45.8357  -11.8791 O.2     1  UNL1       -0.2451
     35 O         -27.4604   45.2430  -10.9558 O.3     1  UNL1       -0.4771
     36 H         -26.9940   45.2736  -11.8547 H       1  UNL1        0.2954
@<TRIPOS>BOND
     1    14    15    1
     2    15     4    1
     3     4     5   ar
     4     5     1    1
     5     1     2    2
     6     1     3   am
     7     3    26    1
     8    26    27    1
     9    27    28   ar
    10    28    29   ar
    11    29    30   ar
    12    30    31   ar
    13    31    33    1
    14    33    34    2
    15    33    35    1
    16    31    32   ar
    17     3    16    1
    18    16    17    1
    19    16    18    1
    20    18    19   ar
    21    19    20   ar
    22    20    21   ar
    23    21    22    1
    24    21    23   ar
    25    23    24   ar
    26    24    25    1
    27     5     6   ar
    28     6     7   ar
    29     7     8   ar
    30     8     9   ar
    31     9    10   ar
    32    10    11   ar
    33    11    12   ar
    34    12    13   ar
    35    13     4   ar
    36    32    27   ar
    37    24    18   ar
    38    13     8   ar
    39    35    36    1
