@<TRIPOS>MOLECULE
*****
 39 43 0 0 0
SMALL
GASTEIGER

@<TRIPOS>ATOM
      1 C          46.1811   13.2290  -25.4375 C.2     1  UNL1        0.2306
      2 O          45.0197   13.6997  -25.5768 O.2     1  UNL1       -0.2745
      3 N          46.5150   12.5100  -24.2369 N.am    1  UNL1       -0.2711
      4 C          45.6471   12.4786  -23.0572 C.3     1  UNL1        0.1202
      5 C          46.5227   11.8925  -22.0122 C.ar    1  UNL1       -0.0046
      6 C          46.2933   11.8463  -20.6367 C.ar    1  UNL1       -0.0015
      7 C          47.3526   11.4795  -19.7907 C.ar    1  UNL1        0.0199
      8 C          48.6217   11.1729  -20.3293 C.ar    1  UNL1        0.1249
      9 C          48.8088   11.1749  -21.7215 C.ar    1  UNL1        0.0173
     10 C          47.7457   11.5506  -22.5391 C.ar    1  UNL1       -0.0033
     11 C          47.8155   11.8909  -23.9749 C.3     1  UNL1        0.1202
     12 S          50.0158   10.9544  -19.2760 S.O2    1  UNL1        0.0748
     13 O          49.5673   10.6874  -17.8665 O.2     1  UNL1       -0.1499
     14 O          50.8124    9.7810  -19.7714 O.2     1  UNL1       -0.1499
     15 N          51.0164   12.3743  -19.2833 N.pl3   1  UNL1       -0.1962
     16 H          51.5456   12.6087  -18.4142 H       1  UNL1        0.1754
     17 C          51.0818   13.2703  -20.3994 C.ar    1  UNL1        0.1899
     18 C          52.2242   13.6668  -21.0557 C.ar    1  UNL1        0.1594
     19 N          51.8418   14.4858  -22.0540 N.ar    1  UNL1       -0.1433
     20 N          50.5182   14.5597  -21.9910 N.ar    1  UNL1       -0.1466
     21 N          50.0212   13.8379  -20.9967 N.ar    1  UNL1       -0.1299
     22 C          49.7101   15.3284  -22.8966 C.ar    1  UNL1        0.1026
     23 C          48.3259   15.4322  -22.6918 C.ar    1  UNL1        0.0209
     24 C          47.5401   16.2008  -23.5506 C.ar    1  UNL1        0.0013
     25 C          48.1300   16.8960  -24.6079 C.ar    1  UNL1       -0.0042
     26 C          49.5160   16.8174  -24.8277 C.ar    1  UNL1       -0.0210
     27 C          50.2965   16.0058  -23.9793 C.ar    1  UNL1        0.0166
     28 C          50.1492   17.6186  -25.9516 C.3     1  UNL1        0.0224
     29 C          49.2400   18.7722  -26.3943 C.3     1  UNL1        0.0047
     30 C          51.5366   18.1318  -25.5543 C.3     1  UNL1        0.0047
     31 C          47.2021   13.4847  -26.5142 C.3     1  UNL1        0.1117
     32 C          45.9166   12.5968  -30.0084 C.ar    1  UNL1        0.1384
     33 C          46.1926   11.2277  -30.0494 C.ar    1  UNL1        0.0369
     34 C          46.7976   10.5928  -28.9624 C.ar    1  UNL1        0.0028
     35 C          47.1262   11.3232  -27.8180 C.ar    1  UNL1       -0.0036
     36 C          46.8726   12.7032  -27.7620 C.ar    1  UNL1       -0.0101
     37 C          46.2932   13.3399  -28.8739 C.ar    1  UNL1        0.0331
     38 C          45.6702   13.0217  -32.4586 C.3     1  UNL1        0.2525
     39 O          45.2603   13.1767  -31.1040 O.3     1  UNL1       -0.4714
@<TRIPOS>BOND
     1    38    39    1
     2    39    32    1
     3    32    33   ar
     4    33    34   ar
     5    34    35   ar
     6    35    36   ar
     7    36    31    1
     8    31     1    1
     9     1     2    2
    10     1     3   am
    11     3     4    1
    12     4     5    1
    13     5     6   ar
    14     6     7   ar
    15     7     8   ar
    16     8    12    1
    17    12    13    2
    18    12    14    2
    19    12    15    1
    20    15    17    1
    21    17    18   ar
    22    18    19   ar
    23    19    20   ar
    24    20    22    1
    25    22    23   ar
    26    23    24   ar
    27    24    25   ar
    28    25    26   ar
    29    26    28    1
    30    28    29    1
    31    28    30    1
    32    26    27   ar
    33    20    21   ar
    34     8     9   ar
    35     9    10   ar
    36    10    11    1
    37    36    37   ar
    38    37    32   ar
    39    11     3    1
    40    10     5   ar
    41    21    17   ar
    42    27    22   ar
    43    15    16    1
@<TRIPOS>MOLECULE
*****
 39 43 0 0 0
SMALL
GASTEIGER

@<TRIPOS>ATOM
      1 C          48.6193    8.2802  -29.7641 C.2     1  UNL1        0.2306
      2 O          48.6259    7.6887  -30.8776 O.2     1  UNL1       -0.2745
      3 N          47.7323    9.3940  -29.5586 N.am    1  UNL1       -0.2711
      4 C          46.9847   10.0308  -30.6455 C.3     1  UNL1        0.1202
      5 C          46.4713   11.2731  -30.0166 C.ar    1  UNL1       -0.0046
      6 C          45.8914   12.3720  -30.6513 C.ar    1  UNL1       -0.0015
      7 C          45.7032   13.5520  -29.9134 C.ar    1  UNL1        0.0199
      8 C          46.1023   13.6181  -28.5603 C.ar    1  UNL1        0.1249
      9 C          46.6333   12.4792  -27.9323 C.ar    1  UNL1        0.0173
     10 C          46.8185   11.3236  -28.6872 C.ar    1  UNL1       -0.0033
     11 C          47.6108   10.1374  -28.3032 C.3     1  UNL1        0.1202
     12 S          46.1023   15.1530  -27.6974 S.O2    1  UNL1        0.0748
     13 O          47.5081   15.5550  -27.3490 O.2     1  UNL1       -0.1499
     14 O          45.4941   16.2021  -28.5842 O.2     1  UNL1       -0.1499
     15 N          45.1777   15.0309  -26.2320 N.pl3   1  UNL1       -0.1962
     16 H          44.5239   15.8099  -25.9955 H       1  UNL1        0.1754
     17 C          45.3341   13.9497  -25.3050 C.ar    1  UNL1        0.1899
     18 C          44.3182   13.2387  -24.7088 C.ar    1  UNL1        0.1594
     19 N          44.8950   12.3003  -23.9341 N.ar    1  UNL1       -0.1433
     20 N          46.2059   12.4499  -24.0785 N.ar    1  UNL1       -0.1466
     21 N          46.5108   13.4441  -24.9003 N.ar    1  UNL1       -0.1299
     22 C          47.1874   11.6288  -23.4254 C.ar    1  UNL1        0.1026
     23 C          46.8905   11.0161  -22.1987 C.ar    1  UNL1        0.0209
     24 C          47.8285   10.1941  -21.5740 C.ar    1  UNL1        0.0013
     25 C          49.0635    9.9529  -22.1788 C.ar    1  UNL1       -0.0042
     26 C          49.3808   10.5459  -23.4130 C.ar    1  UNL1       -0.0210
     27 C          48.4426   11.4073  -24.0174 C.ar    1  UNL1        0.0166
     28 C          50.7081   10.2343  -24.0817 C.3     1  UNL1        0.0224
     29 C          50.7661    8.7751  -24.5519 C.3     1  UNL1        0.0047
     30 C          50.9863   11.1978  -25.2394 C.3     1  UNL1        0.0047
     31 C          49.5855    7.8334  -28.6991 C.3     1  UNL1        0.1117
     32 C          53.1316    8.0388  -30.1248 C.ar    1  UNL1        0.1384
     33 C          53.5997    9.1965  -29.4980 C.ar    1  UNL1        0.0369
     34 C          52.7769    9.9143  -28.6272 C.ar    1  UNL1        0.0028
     35 C          51.4764    9.4745  -28.3692 C.ar    1  UNL1       -0.0036
     36 C          50.9803    8.3227  -29.0010 C.ar    1  UNL1       -0.0101
     37 C          51.8049    7.6251  -29.9015 C.ar    1  UNL1        0.0331
     38 C          55.2974    6.8635  -30.5405 C.3     1  UNL1        0.2525
     39 O          54.0138    7.3248  -30.9489 O.3     1  UNL1       -0.4714
@<TRIPOS>BOND
     1    38    39    1
     2    39    32    1
     3    32    33   ar
     4    33    34   ar
     5    34    35   ar
     6    35    36   ar
     7    36    31    1
     8    31     1    1
     9     1     2    2
    10     1     3   am
    11     3     4    1
    12     4     5    1
    13     5     6   ar
    14     6     7   ar
    15     7     8   ar
    16     8    12    1
    17    12    13    2
    18    12    14    2
    19    12    15    1
    20    15    17    1
    21    17    18   ar
    22    18    19   ar
    23    19    20   ar
    24    20    22    1
    25    22    23   ar
    26    23    24   ar
    27    24    25   ar
    28    25    26   ar
    29    26    28    1
    30    28    29    1
    31    28    30    1
    32    26    27   ar
    33    20    21   ar
    34     8     9   ar
    35     9    10   ar
    36    10    11    1
    37    36    37   ar
    38    37    32   ar
    39    11     3    1
    40    10     5   ar
    41    21    17   ar
    42    27    22   ar
    43    15    16    1
@<TRIPOS>MOLECULE
*****
 39 43 0 0 0
SMALL
GASTEIGER

@<TRIPOS>ATOM
      1 C          48.4302    8.5041  -29.6932 C.2     1  UNL1        0.2306
      2 O          48.4914    7.9444  -30.8213 O.2     1  UNL1       -0.2745
      3 N          47.5550    9.6307  -29.5077 N.am    1  UNL1       -0.2711
      4 C          46.8866   10.3142  -30.6176 C.3     1  UNL1        0.1202
      5 C          46.3616   11.5490  -29.9838 C.ar    1  UNL1       -0.0046
      6 C          45.8429   12.6778  -30.6190 C.ar    1  UNL1       -0.0015
      7 C          45.6346   13.8403  -29.8590 C.ar    1  UNL1        0.0199
      8 C          45.9533   13.8593  -28.4832 C.ar    1  UNL1        0.1249
      9 C          46.4229   12.6919  -27.8588 C.ar    1  UNL1        0.0173
     10 C          46.6297   11.5543  -28.6353 C.ar    1  UNL1       -0.0033
     11 C          47.3736   10.3408  -28.2403 C.3     1  UNL1        0.1202
     12 S          45.9326   15.3688  -27.5769 S.O2    1  UNL1        0.0748
     13 O          44.8923   16.2984  -28.1363 O.2     1  UNL1       -0.1499
     14 O          45.6025   15.0635  -26.1434 O.2     1  UNL1       -0.1499
     15 N          47.4811   16.1518  -27.6571 N.pl3   1  UNL1       -0.1962
     16 H          47.5825   16.9803  -28.2846 H       1  UNL1        0.1754
     17 C          48.6340   15.6618  -26.9617 C.ar    1  UNL1        0.1899
     18 C          49.6913   16.4177  -26.5103 C.ar    1  UNL1        0.1594
     19 N          50.5423   15.5767  -25.8923 N.ar    1  UNL1       -0.1433
     20 N          49.9976   14.3689  -25.9706 N.ar    1  UNL1       -0.1466
     21 N          48.8402   14.3804  -26.6163 N.ar    1  UNL1       -0.1299
     22 C          50.5872   13.1816  -25.4168 C.ar    1  UNL1        0.1026
     23 C          51.9760   13.1038  -25.2334 C.ar    1  UNL1        0.0209
     24 C          52.5517   11.9654  -24.6691 C.ar    1  UNL1        0.0013
     25 C          51.7460   10.9023  -24.2571 C.ar    1  UNL1       -0.0042
     26 C          50.3510   10.9604  -24.4196 C.ar    1  UNL1       -0.0210
     27 C          49.7817   12.0977  -25.0279 C.ar    1  UNL1        0.0166
     28 C          49.4843    9.8174  -23.9213 C.3     1  UNL1        0.0224
     29 C          50.3126    8.5450  -23.7012 C.3     1  UNL1        0.0047
     30 C          48.7270   10.2089  -22.6488 C.3     1  UNL1        0.0047
     31 C          49.3217    8.0064  -28.5865 C.3     1  UNL1        0.1117
     32 C          52.9501    8.7830  -29.5253 C.ar    1  UNL1        0.1384
     33 C          53.2088    9.8747  -28.6925 C.ar    1  UNL1        0.0369
     34 C          52.2188   10.3660  -27.8385 C.ar    1  UNL1        0.0028
     35 C          50.9595    9.7626  -27.8048 C.ar    1  UNL1       -0.0036
     36 C          50.6731    8.6747  -28.6451 C.ar    1  UNL1       -0.0101
     37 C          51.6655    8.2078  -29.5252 C.ar    1  UNL1        0.0331
     38 C          54.8067    7.1755  -29.9885 C.3     1  UNL1        0.2525
     39 O          53.9933    8.2944  -30.3255 O.3     1  UNL1       -0.4714
@<TRIPOS>BOND
     1    38    39    1
     2    39    32    1
     3    32    33   ar
     4    33    34   ar
     5    34    35   ar
     6    35    36   ar
     7    36    31    1
     8    31     1    1
     9     1     2    2
    10     1     3   am
    11     3     4    1
    12     4     5    1
    13     5     6   ar
    14     6     7   ar
    15     7     8   ar
    16     8    12    1
    17    12    13    2
    18    12    14    2
    19    12    15    1
    20    15    17    1
    21    17    18   ar
    22    18    19   ar
    23    19    20   ar
    24    20    22    1
    25    22    23   ar
    26    23    24   ar
    27    24    25   ar
    28    25    26   ar
    29    26    28    1
    30    28    29    1
    31    28    30    1
    32    26    27   ar
    33    20    21   ar
    34     8     9   ar
    35     9    10   ar
    36    10    11    1
    37    36    37   ar
    38    37    32   ar
    39    11     3    1
    40    10     5   ar
    41    21    17   ar
    42    27    22   ar
    43    15    16    1
@<TRIPOS>MOLECULE
*****
 39 43 0 0 0
SMALL
GASTEIGER

@<TRIPOS>ATOM
      1 C          53.1065    9.3764  -29.0494 C.2     1  UNL1        0.2306
      2 O          53.7968   10.1533  -29.7634 O.2     1  UNL1       -0.2745
      3 N          52.2576    9.9227  -28.0245 N.am    1  UNL1       -0.2711
      4 C          52.3109   11.3258  -27.6070 C.3     1  UNL1        0.1202
      5 C          51.5002   11.3370  -26.3640 C.ar    1  UNL1       -0.0046
      6 C          51.4050   12.3587  -25.4187 C.ar    1  UNL1       -0.0015
      7 C          50.7879   12.0803  -24.1882 C.ar    1  UNL1        0.0199
      8 C          50.2840   10.7886  -23.9194 C.ar    1  UNL1        0.1249
      9 C          50.3451    9.7948  -24.9104 C.ar    1  UNL1        0.0173
     10 C          50.9697   10.0924  -26.1191 C.ar    1  UNL1       -0.0033
     11 C          51.3873    9.1272  -27.1566 C.3     1  UNL1        0.1202
     12 S          49.7348   10.3568  -22.3032 S.O2    1  UNL1        0.0748
     13 O          50.0324    8.9109  -22.0205 O.2     1  UNL1       -0.1499
     14 O          50.4594   11.2144  -21.3049 O.2     1  UNL1       -0.1499
     15 N          48.0238   10.6144  -22.1493 N.pl3   1  UNL1       -0.1962
     16 H          47.5137   10.0999  -21.3974 H       1  UNL1        0.1754
     17 C          47.2798   11.4380  -23.0553 C.ar    1  UNL1        0.1899
     18 C          46.3592   12.3998  -22.7082 C.ar    1  UNL1        0.1594
     19 N          45.9156   12.9531  -23.8530 N.ar    1  UNL1       -0.1433
     20 N          46.5617   12.3424  -24.8386 N.ar    1  UNL1       -0.1466
     21 N          47.3958   11.4136  -24.3932 N.ar    1  UNL1       -0.1299
     22 C          46.3854   12.6511  -26.2305 C.ar    1  UNL1        0.1026
     23 C          46.2380   13.9838  -26.6439 C.ar    1  UNL1        0.0209
     24 C          46.0959   14.2925  -27.9968 C.ar    1  UNL1        0.0013
     25 C          46.1257   13.2776  -28.9550 C.ar    1  UNL1       -0.0042
     26 C          46.2834   11.9357  -28.5676 C.ar    1  UNL1       -0.0210
     27 C          46.3856   11.6292  -27.1952 C.ar    1  UNL1        0.0166
     28 C          46.3635   10.8486  -29.6248 C.3     1  UNL1        0.0224
     29 C          46.4807   11.4478  -31.0323 C.3     1  UNL1        0.0047
     30 C          47.5162    9.8810  -29.3401 C.3     1  UNL1        0.0047
     31 C          53.2369    7.8909  -29.2577 C.3     1  UNL1        0.1117
     32 C          50.3384    7.0291  -31.6041 C.ar    1  UNL1        0.1384
     33 C          51.0352    6.5577  -32.7197 C.ar    1  UNL1        0.0369
     34 C          52.4314    6.5248  -32.7225 C.ar    1  UNL1        0.0028
     35 C          53.1451    6.9578  -31.6026 C.ar    1  UNL1       -0.0036
     36 C          52.4653    7.4506  -30.4771 C.ar    1  UNL1       -0.0101
     37 C          51.0604    7.5106  -30.4960 C.ar    1  UNL1        0.0331
     38 C          48.1720    6.1480  -32.4846 C.3     1  UNL1        0.2525
     39 O          48.9365    6.9924  -31.6305 O.3     1  UNL1       -0.4714
@<TRIPOS>BOND
     1    38    39    1
     2    39    32    1
     3    32    33   ar
     4    33    34   ar
     5    34    35   ar
     6    35    36   ar
     7    36    31    1
     8    31     1    1
     9     1     2    2
    10     1     3   am
    11     3     4    1
    12     4     5    1
    13     5     6   ar
    14     6     7   ar
    15     7     8   ar
    16     8    12    1
    17    12    13    2
    18    12    14    2
    19    12    15    1
    20    15    17    1
    21    17    18   ar
    22    18    19   ar
    23    19    20   ar
    24    20    22    1
    25    22    23   ar
    26    23    24   ar
    27    24    25   ar
    28    25    26   ar
    29    26    28    1
    30    28    29    1
    31    28    30    1
    32    26    27   ar
    33    20    21   ar
    34     8     9   ar
    35     9    10   ar
    36    10    11    1
    37    36    37   ar
    38    37    32   ar
    39    11     3    1
    40    10     5   ar
    41    21    17   ar
    42    27    22   ar
    43    15    16    1
@<TRIPOS>MOLECULE
*****
 39 43 0 0 0
SMALL
GASTEIGER

@<TRIPOS>ATOM
      1 C          47.1756   14.5232  -26.8483 C.2     1  UNL1        0.2306
      2 O          47.6046   15.1953  -27.8251 O.2     1  UNL1       -0.2745
      3 N          47.8522   14.6034  -25.5813 N.am    1  UNL1       -0.2711
      4 C          49.1534   15.2543  -25.4104 C.3     1  UNL1        0.1202
      5 C          49.5658   14.8277  -24.0502 C.ar    1  UNL1       -0.0046
      6 C          50.8238   14.9594  -23.4614 C.ar    1  UNL1       -0.0015
      7 C          51.0824   14.2676  -22.2669 C.ar    1  UNL1        0.0199
      8 C          50.0866   13.4522  -21.6853 C.ar    1  UNL1        0.1249
      9 C          48.8117   13.3816  -22.2710 C.ar    1  UNL1        0.0173
     10 C          48.5824   14.0696  -23.4600 C.ar    1  UNL1       -0.0033
     11 C          47.4308   13.8984  -24.3693 C.3     1  UNL1        0.1202
     12 S          50.4706   12.3907  -20.3340 S.O2    1  UNL1        0.0748
     13 O          51.9420   12.4436  -20.0314 O.2     1  UNL1       -0.1499
     14 O          49.7017   12.8512  -19.1283 O.2     1  UNL1       -0.1499
     15 N          50.0356   10.7498  -20.7023 N.pl3   1  UNL1       -0.1962
     16 H          49.7533   10.1260  -19.9139 H       1  UNL1        0.1754
     17 C          50.1237   10.2029  -22.0236 C.ar    1  UNL1        0.1899
     18 C          49.5273    9.0436  -22.4633 C.ar    1  UNL1        0.1594
     19 N          49.8400    8.9084  -23.7662 N.ar    1  UNL1       -0.1433
     20 N          50.5874    9.9586  -24.0825 N.ar    1  UNL1       -0.1466
     21 N          50.7844   10.7649  -23.0491 N.ar    1  UNL1       -0.1299
     22 C          51.1210   10.2022  -25.3939 C.ar    1  UNL1        0.1026
     23 C          52.1458   11.1433  -25.5744 C.ar    1  UNL1        0.0209
     24 C          52.6884   11.3632  -26.8405 C.ar    1  UNL1        0.0013
     25 C          52.2330   10.6280  -27.9365 C.ar    1  UNL1       -0.0042
     26 C          51.2151    9.6714  -27.7800 C.ar    1  UNL1       -0.0210
     27 C          50.6446    9.4847  -26.5044 C.ar    1  UNL1        0.0166
     28 C          50.7654    8.8451  -28.9720 C.3     1  UNL1        0.0224
     29 C          51.9634    8.2335  -29.7098 C.3     1  UNL1        0.0047
     30 C          49.7659    7.7631  -28.5521 C.3     1  UNL1        0.0047
     31 C          45.9958   13.6112  -27.0569 C.3     1  UNL1        0.1117
     32 C          46.2738   11.7920  -30.4129 C.ar    1  UNL1        0.1384
     33 C          46.8177   10.5712  -30.0054 C.ar    1  UNL1        0.0369
     34 C          47.1028   10.3357  -28.6586 C.ar    1  UNL1        0.0028
     35 C          46.8385   11.3201  -27.7035 C.ar    1  UNL1       -0.0036
     36 C          46.3073   12.5600  -28.0934 C.ar    1  UNL1       -0.0101
     37 C          46.0541   12.8002  -29.4556 C.ar    1  UNL1        0.0331
     38 C          45.6468   13.2121  -32.3714 C.3     1  UNL1        0.2525
     39 O          45.9563   11.9598  -31.7688 O.3     1  UNL1       -0.4714
@<TRIPOS>BOND
     1    38    39    1
     2    39    32    1
     3    32    33   ar
     4    33    34   ar
     5    34    35   ar
     6    35    36   ar
     7    36    31    1
     8    31     1    1
     9     1     2    2
    10     1     3   am
    11     3     4    1
    12     4     5    1
    13     5     6   ar
    14     6     7   ar
    15     7     8   ar
    16     8    12    1
    17    12    13    2
    18    12    14    2
    19    12    15    1
    20    15    17    1
    21    17    18   ar
    22    18    19   ar
    23    19    20   ar
    24    20    22    1
    25    22    23   ar
    26    23    24   ar
    27    24    25   ar
    28    25    26   ar
    29    26    28    1
    30    28    29    1
    31    28    30    1
    32    26    27   ar
    33    20    21   ar
    34     8     9   ar
    35     9    10   ar
    36    10    11    1
    37    36    37   ar
    38    37    32   ar
    39    11     3    1
    40    10     5   ar
    41    21    17   ar
    42    27    22   ar
    43    15    16    1
@<TRIPOS>MOLECULE
*****
 39 43 0 0 0
SMALL
GASTEIGER

@<TRIPOS>ATOM
      1 C          48.4122   14.3811  -25.3634 C.2     1  UNL1        0.2306
      2 O          49.1029   14.6822  -26.3744 O.2     1  UNL1       -0.2745
      3 N          49.0195   14.3994  -24.0593 N.am    1  UNL1       -0.2711
      4 C          50.4634   14.5343  -23.8524 C.3     1  UNL1        0.1202
      5 C          50.6289   14.2028  -22.4155 C.ar    1  UNL1       -0.0046
      6 C          51.8178   13.9446  -21.7325 C.ar    1  UNL1       -0.0015
      7 C          51.7456   13.4023  -20.4390 C.ar    1  UNL1        0.0199
      8 C          50.4919   13.1206  -19.8530 C.ar    1  UNL1        0.1249
      9 C          49.3107   13.4414  -20.5424 C.ar    1  UNL1        0.0173
     10 C          49.4081   13.9701  -21.8272 C.ar    1  UNL1       -0.0033
     11 C          48.3143   14.1023  -22.8112 C.3     1  UNL1        0.1202
     12 S          50.3875   12.2180  -18.3448 S.O2    1  UNL1        0.0748
     13 O          51.7051   12.2558  -17.6224 O.2     1  UNL1       -0.1499
     14 O          49.3323   12.8478  -17.4805 O.2     1  UNL1       -0.1499
     15 N          49.9671   10.5607  -18.6515 N.pl3   1  UNL1       -0.1962
     16 H          49.9948    9.8893  -17.8523 H       1  UNL1        0.1754
     17 C          49.6625   10.0685  -19.9622 C.ar    1  UNL1        0.1899
     18 C          48.5232    9.3905  -20.3298 C.ar    1  UNL1        0.1594
     19 N          48.6240    9.1347  -21.6480 N.ar    1  UNL1       -0.1433
     20 N          49.7801    9.6538  -22.0425 N.ar    1  UNL1       -0.1466
     21 N          50.4404   10.2258  -21.0457 N.ar    1  UNL1       -0.1299
     22 C          50.2642    9.6087  -23.3944 C.ar    1  UNL1        0.1026
     23 C          49.9175    8.5378  -24.2320 C.ar    1  UNL1        0.0209
     24 C          50.3601    8.5029  -25.5544 C.ar    1  UNL1        0.0013
     25 C          51.1317    9.5488  -26.0639 C.ar    1  UNL1       -0.0042
     26 C          51.4832   10.6384  -25.2485 C.ar    1  UNL1       -0.0210
     27 C          51.0655   10.6456  -23.9020 C.ar    1  UNL1        0.0166
     28 C          52.2808   11.7917  -25.8313 C.3     1  UNL1        0.0224
     29 C          53.4718   12.1546  -24.9350 C.3     1  UNL1        0.0047
     30 C          52.7399   11.4834  -27.2597 C.3     1  UNL1        0.0047
     31 C          46.9814   13.9562  -25.5620 C.3     1  UNL1        0.1117
     32 C          46.1367   12.9389  -29.1538 C.ar    1  UNL1        0.1384
     33 C          46.4937   11.5882  -29.1348 C.ar    1  UNL1        0.0369
     34 C          47.0125   11.0075  -27.9753 C.ar    1  UNL1        0.0028
     35 C          47.1722   11.7740  -26.8186 C.ar    1  UNL1       -0.0036
     36 C          46.8351   13.1371  -26.8205 C.ar    1  UNL1       -0.0101
     37 C          46.3444   13.7208  -28.0020 C.ar    1  UNL1        0.0331
     38 C          45.5921   12.8044  -31.5890 C.3     1  UNL1        0.2525
     39 O          45.5711   13.4615  -30.3261 O.3     1  UNL1       -0.4714
@<TRIPOS>BOND
     1    38    39    1
     2    39    32    1
     3    32    33   ar
     4    33    34   ar
     5    34    35   ar
     6    35    36   ar
     7    36    31    1
     8    31     1    1
     9     1     2    2
    10     1     3   am
    11     3     4    1
    12     4     5    1
    13     5     6   ar
    14     6     7   ar
    15     7     8   ar
    16     8    12    1
    17    12    13    2
    18    12    14    2
    19    12    15    1
    20    15    17    1
    21    17    18   ar
    22    18    19   ar
    23    19    20   ar
    24    20    22    1
    25    22    23   ar
    26    23    24   ar
    27    24    25   ar
    28    25    26   ar
    29    26    28    1
    30    28    29    1
    31    28    30    1
    32    26    27   ar
    33    20    21   ar
    34     8     9   ar
    35     9    10   ar
    36    10    11    1
    37    36    37   ar
    38    37    32   ar
    39    11     3    1
    40    10     5   ar
    41    21    17   ar
    42    27    22   ar
    43    15    16    1
@<TRIPOS>MOLECULE
*****
 39 43 0 0 0
SMALL
GASTEIGER

@<TRIPOS>ATOM
      1 C          50.1122   13.9922  -24.1039 C.2     1  UNL1        0.2306
      2 O          50.9505   14.9257  -23.9793 O.2     1  UNL1       -0.2745
      3 N          50.4941   12.7828  -24.7831 N.am    1  UNL1       -0.2711
      4 C          51.7413   12.6516  -25.5402 C.3     1  UNL1        0.1202
      5 C          51.5509   11.3809  -26.2827 C.ar    1  UNL1       -0.0046
      6 C          52.3220   10.8857  -27.3347 C.ar    1  UNL1       -0.0015
      7 C          51.8328    9.7942  -28.0707 C.ar    1  UNL1        0.0199
      8 C          50.5823    9.2212  -27.7502 C.ar    1  UNL1        0.1249
      9 C          49.8530    9.7057  -26.6517 C.ar    1  UNL1        0.0173
     10 C          50.3547   10.7945  -25.9428 C.ar    1  UNL1       -0.0033
     11 C          49.6223   11.6202  -24.9609 C.3     1  UNL1        0.1202
     12 S          49.8453    8.0227  -28.8089 S.O2    1  UNL1        0.0748
     13 O          50.9072    7.2078  -29.4925 O.2     1  UNL1       -0.1499
     14 O          48.9835    7.1142  -27.9788 O.2     1  UNL1       -0.1499
     15 N          48.8686    8.7947  -30.0203 N.pl3   1  UNL1       -0.1962
     16 H          49.0843    8.6019  -31.0236 H       1  UNL1        0.1754
     17 C          47.8387    9.7378  -29.6999 C.ar    1  UNL1        0.1899
     18 C          46.7321   10.0224  -30.4664 C.ar    1  UNL1        0.1594
     19 N          46.0112   10.9395  -29.7937 N.ar    1  UNL1       -0.1433
     20 N          46.6685   11.1780  -28.6655 N.ar    1  UNL1       -0.1466
     21 N          47.7850   10.4695  -28.5749 N.ar    1  UNL1       -0.1299
     22 C          46.2239   12.0943  -27.6522 C.ar    1  UNL1        0.1026
     23 C          45.7752   11.6120  -26.4135 C.ar    1  UNL1        0.0209
     24 C          45.3699   12.4977  -25.4150 C.ar    1  UNL1        0.0013
     25 C          45.4326   13.8755  -25.6314 C.ar    1  UNL1       -0.0042
     26 C          45.8890   14.3842  -26.8597 C.ar    1  UNL1       -0.0210
     27 C          46.2582   13.4810  -27.8773 C.ar    1  UNL1        0.0166
     28 C          45.9982   15.8852  -27.0618 C.3     1  UNL1        0.0224
     29 C          47.2534   16.2494  -27.8652 C.3     1  UNL1        0.0047
     30 C          44.7373   16.4495  -27.7236 C.3     1  UNL1        0.0047
     31 C          48.7143   14.1976  -23.5836 C.3     1  UNL1        0.1117
     32 C          48.5555   17.7679  -24.9537 C.ar    1  UNL1        0.1384
     33 C          47.3512   18.2086  -24.3989 C.ar    1  UNL1        0.0369
     34 C          46.5877   17.3595  -23.5947 C.ar    1  UNL1        0.0028
     35 C          47.0275   16.0601  -23.3316 C.ar    1  UNL1       -0.0036
     36 C          48.2266   15.5915  -23.8923 C.ar    1  UNL1       -0.0101
     37 C          48.9721   16.4427  -24.7274 C.ar    1  UNL1        0.0331
     38 C          50.4533   18.3203  -26.4828 C.3     1  UNL1        0.2525
     39 O          49.3112   18.6754  -25.7104 O.3     1  UNL1       -0.4714
@<TRIPOS>BOND
     1    38    39    1
     2    39    32    1
     3    32    33   ar
     4    33    34   ar
     5    34    35   ar
     6    35    36   ar
     7    36    31    1
     8    31     1    1
     9     1     2    2
    10     1     3   am
    11     3     4    1
    12     4     5    1
    13     5     6   ar
    14     6     7   ar
    15     7     8   ar
    16     8    12    1
    17    12    13    2
    18    12    14    2
    19    12    15    1
    20    15    17    1
    21    17    18   ar
    22    18    19   ar
    23    19    20   ar
    24    20    22    1
    25    22    23   ar
    26    23    24   ar
    27    24    25   ar
    28    25    26   ar
    29    26    28    1
    30    28    29    1
    31    28    30    1
    32    26    27   ar
    33    20    21   ar
    34     8     9   ar
    35     9    10   ar
    36    10    11    1
    37    36    37   ar
    38    37    32   ar
    39    11     3    1
    40    10     5   ar
    41    21    17   ar
    42    27    22   ar
    43    15    16    1
@<TRIPOS>MOLECULE
*****
 39 43 0 0 0
SMALL
GASTEIGER

@<TRIPOS>ATOM
      1 C          52.2710    9.3345  -29.3528 C.2     1  UNL1        0.2306
      2 O          53.2069    9.8788  -29.9991 O.2     1  UNL1       -0.2745
      3 N          51.7602    9.9752  -28.1703 N.am    1  UNL1       -0.2711
      4 C          52.4139   11.1239  -27.5386 C.3     1  UNL1        0.1202
      5 C          51.7166   11.2306  -26.2331 C.ar    1  UNL1       -0.0046
      6 C          52.0877   11.9999  -25.1298 C.ar    1  UNL1       -0.0015
      7 C          51.4426   11.7711  -23.9035 C.ar    1  UNL1        0.0199
      8 C          50.4458   10.7763  -23.7969 C.ar    1  UNL1        0.1249
      9 C          50.0545   10.0546  -24.9369 C.ar    1  UNL1        0.0173
     10 C          50.7151   10.2932  -26.1395 C.ar    1  UNL1       -0.0033
     11 C          50.6574    9.4592  -27.3574 C.3     1  UNL1        0.1202
     12 S          49.8070   10.3092  -22.2240 S.O2    1  UNL1        0.0748
     13 O          50.1306    8.8699  -21.9364 O.2     1  UNL1       -0.1499
     14 O          50.4385   11.1769  -21.1726 O.2     1  UNL1       -0.1499
     15 N          48.0825   10.5128  -22.1791 N.pl3   1  UNL1       -0.1962
     16 H          47.5321    9.9114  -21.5265 H       1  UNL1        0.1754
     17 C          47.3854   11.4108  -23.0511 C.ar    1  UNL1        0.1899
     18 C          46.5935   12.4671  -22.6635 C.ar    1  UNL1        0.1594
     19 N          46.1531   13.0635  -23.7876 N.ar    1  UNL1       -0.1433
     20 N          46.6769   12.3851  -24.8010 N.ar    1  UNL1       -0.1466
     21 N          47.4279   11.3721  -24.3929 N.ar    1  UNL1       -0.1299
     22 C          46.4624   12.7092  -26.1841 C.ar    1  UNL1        0.1026
     23 C          46.3224   14.0476  -26.5811 C.ar    1  UNL1        0.0209
     24 C          46.1432   14.3707  -27.9262 C.ar    1  UNL1        0.0013
     25 C          46.1281   13.3643  -28.8937 C.ar    1  UNL1       -0.0042
     26 C          46.2775   12.0167  -28.5230 C.ar    1  UNL1       -0.0210
     27 C          46.4174   11.6963  -27.1572 C.ar    1  UNL1        0.0166
     28 C          46.3086   10.9383  -29.5916 C.3     1  UNL1        0.0224
     29 C          46.4183   11.5478  -30.9952 C.3     1  UNL1        0.0047
     30 C          47.4383    9.9360  -29.3363 C.3     1  UNL1        0.0047
     31 C          51.7541    7.9968  -29.8116 C.3     1  UNL1        0.1117
     32 C          55.0055    6.5704  -31.2412 C.ar    1  UNL1        0.1384
     33 C          54.5797    6.1663  -32.5092 C.ar    1  UNL1        0.0369
     34 C          53.2508    6.3429  -32.9011 C.ar    1  UNL1        0.0028
     35 C          52.3349    6.9340  -32.0277 C.ar    1  UNL1       -0.0036
     36 C          52.7378    7.3325  -30.7429 C.ar    1  UNL1       -0.0101
     37 C          54.0699    7.1207  -30.3451 C.ar    1  UNL1        0.0331
     38 C          57.0541    7.2291  -29.9706 C.3     1  UNL1        0.2525
     39 O          56.3613    6.4197  -30.9150 O.3     1  UNL1       -0.4714
@<TRIPOS>BOND
     1    38    39    1
     2    39    32    1
     3    32    33   ar
     4    33    34   ar
     5    34    35   ar
     6    35    36   ar
     7    36    31    1
     8    31     1    1
     9     1     2    2
    10     1     3   am
    11     3     4    1
    12     4     5    1
    13     5     6   ar
    14     6     7   ar
    15     7     8   ar
    16     8    12    1
    17    12    13    2
    18    12    14    2
    19    12    15    1
    20    15    17    1
    21    17    18   ar
    22    18    19   ar
    23    19    20   ar
    24    20    22    1
    25    22    23   ar
    26    23    24   ar
    27    24    25   ar
    28    25    26   ar
    29    26    28    1
    30    28    29    1
    31    28    30    1
    32    26    27   ar
    33    20    21   ar
    34     8     9   ar
    35     9    10   ar
    36    10    11    1
    37    36    37   ar
    38    37    32   ar
    39    11     3    1
    40    10     5   ar
    41    21    17   ar
    42    27    22   ar
    43    15    16    1
@<TRIPOS>MOLECULE
*****
 39 43 0 0 0
SMALL
GASTEIGER

@<TRIPOS>ATOM
      1 C          48.2476   15.7330  -24.7810 C.2     1  UNL1        0.2306
      2 O          48.8317   16.0343  -25.8570 O.2     1  UNL1       -0.2745
      3 N          49.0285   15.4412  -23.6084 N.am    1  UNL1       -0.2711
      4 C          50.4811   15.2555  -23.6421 C.3     1  UNL1        0.1202
      5 C          50.7785   14.6931  -22.3014 C.ar    1  UNL1       -0.0046
      6 C          51.9688   14.1079  -21.8684 C.ar    1  UNL1       -0.0015
      7 C          51.9697   13.4090  -20.6501 C.ar    1  UNL1        0.0199
      8 C          50.7845   13.2999  -19.8899 C.ar    1  UNL1        0.1249
      9 C          49.6145   13.9451  -20.3237 C.ar    1  UNL1        0.0173
     10 C          49.6362   14.6245  -21.5393 C.ar    1  UNL1       -0.0033
     11 C          48.4659   15.1123  -22.2975 C.3     1  UNL1        0.1202
     12 S          50.7068   12.2270  -18.4959 S.O2    1  UNL1        0.0748
     13 O          51.9954   12.2811  -17.7241 O.2     1  UNL1       -0.1499
     14 O          49.5804   12.6744  -17.6081 O.2     1  UNL1       -0.1499
     15 N          50.4269   10.5884  -18.9999 N.pl3   1  UNL1       -0.1962
     16 H          50.7096    9.8188  -18.3532 H       1  UNL1        0.1754
     17 C          49.8999   10.2537  -20.2894 C.ar    1  UNL1        0.1899
     18 C          48.9303    9.3131  -20.5506 C.ar    1  UNL1        0.1594
     19 N          48.7094    9.3322  -21.8788 N.ar    1  UNL1       -0.1433
     20 N          49.5161   10.2599  -22.3790 N.ar    1  UNL1       -0.1466
     21 N          50.2571   10.8384  -21.4446 N.ar    1  UNL1       -0.1299
     22 C          49.5804   10.6059  -23.7719 C.ar    1  UNL1        0.1026
     23 C          49.0950   11.8460  -24.2134 C.ar    1  UNL1        0.0209
     24 C          49.1812   12.1999  -25.5600 C.ar    1  UNL1        0.0013
     25 C          49.7765   11.3317  -26.4770 C.ar    1  UNL1       -0.0042
     26 C          50.2806   10.0883  -26.0579 C.ar    1  UNL1       -0.0210
     27 C          50.1526    9.7219  -24.7026 C.ar    1  UNL1        0.0166
     28 C          50.9694    9.1766  -27.0580 C.3     1  UNL1        0.0224
     29 C          49.9854    8.6705  -28.1205 C.3     1  UNL1        0.0047
     30 C          52.1712    9.8708  -27.7061 C.3     1  UNL1        0.0047
     31 C          46.7452   15.6339  -24.7737 C.3     1  UNL1        0.1117
     32 C          45.9878   12.6545  -27.0538 C.ar    1  UNL1        0.1384
     33 C          45.3857   11.7773  -26.1481 C.ar    1  UNL1        0.0369
     34 C          45.2312   12.1372  -24.8075 C.ar    1  UNL1        0.0028
     35 C          45.6726   13.3851  -24.3613 C.ar    1  UNL1       -0.0036
     36 C          46.2951   14.2753  -25.2511 C.ar    1  UNL1       -0.0101
     37 C          46.4760   13.8911  -26.5917 C.ar    1  UNL1        0.0331
     38 C          46.6901   11.0678  -28.8523 C.3     1  UNL1        0.2525
     39 O          46.0718   12.2677  -28.3994 O.3     1  UNL1       -0.4714
@<TRIPOS>BOND
     1    38    39    1
     2    39    32    1
     3    32    33   ar
     4    33    34   ar
     5    34    35   ar
     6    35    36   ar
     7    36    31    1
     8    31     1    1
     9     1     2    2
    10     1     3   am
    11     3     4    1
    12     4     5    1
    13     5     6   ar
    14     6     7   ar
    15     7     8   ar
    16     8    12    1
    17    12    13    2
    18    12    14    2
    19    12    15    1
    20    15    17    1
    21    17    18   ar
    22    18    19   ar
    23    19    20   ar
    24    20    22    1
    25    22    23   ar
    26    23    24   ar
    27    24    25   ar
    28    25    26   ar
    29    26    28    1
    30    28    29    1
    31    28    30    1
    32    26    27   ar
    33    20    21   ar
    34     8     9   ar
    35     9    10   ar
    36    10    11    1
    37    36    37   ar
    38    37    32   ar
    39    11     3    1
    40    10     5   ar
    41    21    17   ar
    42    27    22   ar
    43    15    16    1
