@<TRIPOS>MOLECULE
*****
 23 25 0 0 0
SMALL
GASTEIGER

@<TRIPOS>ATOM
      1 O          46.7237   11.4474  -27.3316 O.2     1  UNL1       -0.2681
      2 C          46.9800   10.6921  -28.3066 C.2     1  UNL1        0.2700
      3 N          47.5655    9.4060  -28.0568 N.am    1  UNL1       -0.2645
      4 H          47.3165    8.9265  -27.1620 H       1  UNL1        0.1566
      5 C          48.6050    8.8376  -28.8685 C.ar    1  UNL1        0.1344
      6 C          49.9498    9.0779  -28.5538 C.ar    1  UNL1        0.0345
      7 C          50.9563    8.5278  -29.3506 C.ar    1  UNL1        0.0044
      8 C          50.6166    7.7456  -30.4610 C.ar    1  UNL1        0.0178
      9 C          51.6011    7.1729  -31.2801 C.ar    1  UNL1        0.0015
     10 C          51.2270    6.3955  -32.3813 C.ar    1  UNL1        0.0001
     11 C          49.8740    6.1870  -32.6693 C.ar    1  UNL1        0.0015
     12 C          48.8866    6.7554  -31.8583 C.ar    1  UNL1        0.0191
     13 C          49.2514    7.5347  -30.7548 C.ar    1  UNL1        0.0827
     14 N          48.2947    8.0862  -29.9623 N.ar    1  UNL1       -0.2305
     15 C          46.6259   11.1377  -29.6667 C.ar    1  UNL1        0.1553
     16 C          46.2269   12.4101  -30.0416 C.ar    1  UNL1        0.0420
     17 C          46.0415   12.3126  -31.4040 C.ar    1  UNL1        0.0827
     18 N          46.3121   11.0556  -31.7986 N.ar    1  UNL1       -0.2772
     19 N          46.6796   10.3368  -30.7506 N.ar    1  UNL1       -0.1682
     20 H          46.2436   10.6826  -32.7714 H       1  UNL1        0.1887
     21 C          45.5245   13.3895  -32.3007 C.3     1  UNL1        0.1823
     22 O          46.0250   14.6248  -31.8747 O.3     1  UNL1       -0.3760
     23 H          45.6575   15.3008  -32.5013 H       1  UNL1        0.2110
@<TRIPOS>BOND
     1     1     2    2
     2     2     3   am
     3     3     5    1
     4     5     6   ar
     5     6     7   ar
     6     7     8   ar
     7     8     9   ar
     8     9    10   ar
     9    10    11   ar
    10    11    12   ar
    11    12    13   ar
    12    13    14   ar
    13     2    15    1
    14    15    16   ar
    15    16    17   ar
    16    17    21    1
    17    21    22    1
    18    17    18   ar
    19    18    19   ar
    20    14     5   ar
    21    19    15   ar
    22    13     8   ar
    23     3     4    1
    24    22    23    1
    25    18    20    1
@<TRIPOS>MOLECULE
*****
 23 25 0 0 0
SMALL
GASTEIGER

@<TRIPOS>ATOM
      1 O          45.3208   11.3889  -26.6347 O.2     1  UNL1       -0.2681
      2 C          46.1712   12.1388  -27.1834 C.2     1  UNL1        0.2700
      3 N          47.0623   12.9029  -26.3580 N.am    1  UNL1       -0.2645
      4 H          47.3430   12.4916  -25.4390 H       1  UNL1        0.1566
      5 C          47.4317   14.2623  -26.6378 C.ar    1  UNL1        0.1344
      6 C          46.5043   15.1332  -27.2265 C.ar    1  UNL1        0.0345
      7 C          46.8713   16.4522  -27.5021 C.ar    1  UNL1        0.0044
      8 C          48.1637   16.8945  -27.1949 C.ar    1  UNL1        0.0178
      9 C          48.5651   18.2138  -27.4529 C.ar    1  UNL1        0.0015
     10 C          49.8637   18.6234  -27.1323 C.ar    1  UNL1        0.0001
     11 C          50.7644   17.7218  -26.5553 C.ar    1  UNL1        0.0015
     12 C          50.3723   16.4047  -26.2960 C.ar    1  UNL1        0.0191
     13 C          49.0754   15.9860  -26.6136 C.ar    1  UNL1        0.0827
     14 N          48.6895   14.7076  -26.3603 N.ar    1  UNL1       -0.2305
     15 C          46.2516   12.1691  -28.6553 C.ar    1  UNL1        0.1553
     16 C          45.7192   13.1359  -29.4922 C.ar    1  UNL1        0.0420
     17 C          46.0860   12.7216  -30.7547 C.ar    1  UNL1        0.0827
     18 N          46.7869   11.5778  -30.6588 N.ar    1  UNL1       -0.2772
     19 N          46.9027   11.2401  -29.3850 N.ar    1  UNL1       -0.1682
     20 H          47.1811   11.0237  -31.4511 H       1  UNL1        0.1887
     21 C          45.6912   13.3683  -32.0419 C.3     1  UNL1        0.1823
     22 O          46.1706   14.6827  -32.0643 O.3     1  UNL1       -0.3760
     23 H          45.8868   15.0636  -32.9356 H       1  UNL1        0.2110
@<TRIPOS>BOND
     1     1     2    2
     2     2     3   am
     3     3     5    1
     4     5     6   ar
     5     6     7   ar
     6     7     8   ar
     7     8     9   ar
     8     9    10   ar
     9    10    11   ar
    10    11    12   ar
    11    12    13   ar
    12    13    14   ar
    13     2    15    1
    14    15    16   ar
    15    16    17   ar
    16    17    21    1
    17    21    22    1
    18    17    18   ar
    19    18    19   ar
    20    14     5   ar
    21    19    15   ar
    22    13     8   ar
    23     3     4    1
    24    22    23    1
    25    18    20    1
@<TRIPOS>MOLECULE
*****
 23 25 0 0 0
SMALL
GASTEIGER

@<TRIPOS>ATOM
      1 O          45.0151   12.7591  -25.3312 O.2     1  UNL1       -0.2681
      2 C          46.1120   13.0010  -25.9012 C.2     1  UNL1        0.2700
      3 N          47.2542   13.3376  -25.1004 N.am    1  UNL1       -0.2645
      4 H          47.3197   12.9123  -24.1479 H       1  UNL1        0.1566
      5 C          48.1992   14.3584  -25.4577 C.ar    1  UNL1        0.1344
      6 C          49.5733   14.0830  -25.4254 C.ar    1  UNL1        0.0345
      7 C          50.4878   15.0816  -25.7676 C.ar    1  UNL1        0.0044
      8 C          50.0275   16.3518  -26.1346 C.ar    1  UNL1        0.0178
      9 C          50.9170   17.3770  -26.4896 C.ar    1  UNL1        0.0015
     10 C          50.4233   18.6346  -26.8525 C.ar    1  UNL1        0.0001
     11 C          49.0451   18.8742  -26.8624 C.ar    1  UNL1        0.0015
     12 C          48.1519   17.8580  -26.5087 C.ar    1  UNL1        0.0191
     13 C          48.6366   16.5969  -26.1442 C.ar    1  UNL1        0.0827
     14 N          47.7717   15.6056  -25.8028 N.ar    1  UNL1       -0.2305
     15 C          46.1946   12.8839  -27.3686 C.ar    1  UNL1        0.1553
     16 C          46.2538   11.7101  -28.1017 C.ar    1  UNL1        0.0420
     17 C          46.2935   12.1377  -29.4116 C.ar    1  UNL1        0.0827
     18 N          46.2640   13.4820  -29.4392 N.ar    1  UNL1       -0.2772
     19 N          46.1921   13.9445  -28.2019 N.ar    1  UNL1       -0.1682
     20 H          46.2979   14.0858  -30.2904 H       1  UNL1        0.1887
     21 C          46.4485   11.2685  -30.6163 C.3     1  UNL1        0.1823
     22 O          46.0736    9.9598  -30.2927 O.3     1  UNL1       -0.3760
     23 H          46.1905    9.4276  -31.1221 H       1  UNL1        0.2110
@<TRIPOS>BOND
     1     1     2    2
     2     2     3   am
     3     3     5    1
     4     5     6   ar
     5     6     7   ar
     6     7     8   ar
     7     8     9   ar
     8     9    10   ar
     9    10    11   ar
    10    11    12   ar
    11    12    13   ar
    12    13    14   ar
    13     2    15    1
    14    15    16   ar
    15    16    17   ar
    16    17    21    1
    17    21    22    1
    18    17    18   ar
    19    18    19   ar
    20    14     5   ar
    21    19    15   ar
    22    13     8   ar
    23     3     4    1
    24    22    23    1
    25    18    20    1
@<TRIPOS>MOLECULE
*****
 23 25 0 0 0
SMALL
GASTEIGER

@<TRIPOS>ATOM
      1 O          47.3704   15.4705  -23.1235 O.2     1  UNL1       -0.2681
      2 C          46.9430   15.7004  -24.2860 C.2     1  UNL1        0.2700
      3 N          45.9492   14.8308  -24.8477 N.am    1  UNL1       -0.2645
      4 H          45.2678   14.3868  -24.1911 H       1  UNL1        0.1566
      5 C          45.9590   14.3964  -26.2166 C.ar    1  UNL1        0.1344
      6 C          45.6381   15.2989  -27.2401 C.ar    1  UNL1        0.0345
      7 C          45.6430   14.8690  -28.5689 C.ar    1  UNL1        0.0044
      8 C          45.9622   13.5394  -28.8699 C.ar    1  UNL1        0.0178
      9 C          45.9823   13.0744  -30.1934 C.ar    1  UNL1        0.0015
     10 C          46.3067   11.7399  -30.4592 C.ar    1  UNL1        0.0001
     11 C          46.6111   10.8665  -29.4097 C.ar    1  UNL1        0.0015
     12 C          46.5921   11.3219  -28.0876 C.ar    1  UNL1        0.0191
     13 C          46.2685   12.6552  -27.8122 C.ar    1  UNL1        0.0827
     14 N          46.2520   13.1026  -26.5288 N.ar    1  UNL1       -0.2305
     15 C          47.4452   16.8824  -25.0101 C.ar    1  UNL1        0.1553
     16 C          48.6021   16.9570  -25.7681 C.ar    1  UNL1        0.0420
     17 C          48.6044   18.2502  -26.2452 C.ar    1  UNL1        0.0827
     18 N          47.5148   18.8925  -25.7877 N.ar    1  UNL1       -0.2772
     19 N          46.7978   18.0652  -25.0451 N.ar    1  UNL1       -0.1682
     20 H          47.2588   19.8879  -25.9715 H       1  UNL1        0.1887
     21 C          49.6851   18.8868  -27.0562 C.3     1  UNL1        0.1823
     22 O          49.1124   19.7790  -27.9694 O.3     1  UNL1       -0.3760
     23 H          49.8676   20.1750  -28.4769 H       1  UNL1        0.2110
@<TRIPOS>BOND
     1     1     2    2
     2     2     3   am
     3     3     5    1
     4     5     6   ar
     5     6     7   ar
     6     7     8   ar
     7     8     9   ar
     8     9    10   ar
     9    10    11   ar
    10    11    12   ar
    11    12    13   ar
    12    13    14   ar
    13     2    15    1
    14    15    16   ar
    15    16    17   ar
    16    17    21    1
    17    21    22    1
    18    17    18   ar
    19    18    19   ar
    20    14     5   ar
    21    19    15   ar
    22    13     8   ar
    23     3     4    1
    24    22    23    1
    25    18    20    1
@<TRIPOS>MOLECULE
*****
 23 25 0 0 0
SMALL
GASTEIGER

@<TRIPOS>ATOM
      1 O          46.9381   15.2395  -23.8534 O.2     1  UNL1       -0.2681
      2 C          46.7681   15.1364  -25.0972 C.2     1  UNL1        0.2700
      3 N          45.8043   14.1961  -25.5933 N.am    1  UNL1       -0.2645
      4 H          44.9640   14.0066  -25.0013 H       1  UNL1        0.1566
      5 C          46.0223   13.3740  -26.7506 C.ar    1  UNL1        0.1344
      6 C          46.5395   12.0795  -26.6027 C.ar    1  UNL1        0.0345
      7 C          46.7555   11.2870  -27.7322 C.ar    1  UNL1        0.0044
      8 C          46.4603   11.7918  -29.0043 C.ar    1  UNL1        0.0178
      9 C          46.6595   11.0221  -30.1602 C.ar    1  UNL1        0.0015
     10 C          46.3528   11.5567  -31.4160 C.ar    1  UNL1        0.0001
     11 C          45.8481   12.8570  -31.5238 C.ar    1  UNL1        0.0015
     12 C          45.6478   13.6311  -30.3765 C.ar    1  UNL1        0.0191
     13 C          45.9519   13.1047  -29.1162 C.ar    1  UNL1        0.0827
     14 N          45.7557   13.8527  -27.9984 N.ar    1  UNL1       -0.2305
     15 C          47.5324   16.0192  -25.9974 C.ar    1  UNL1        0.1553
     16 C          48.3363   17.0836  -25.6242 C.ar    1  UNL1        0.0420
     17 C          48.8363   17.5575  -26.8182 C.ar    1  UNL1        0.0827
     18 N          48.3481   16.8153  -27.8280 N.ar    1  UNL1       -0.2772
     19 N          47.5632   15.8700  -27.3376 N.ar    1  UNL1       -0.1682
     20 H          48.5396   16.9499  -28.8455 H       1  UNL1        0.1887
     21 C          49.7002   18.7633  -26.9934 C.3     1  UNL1        0.1823
     22 O          49.1712   19.5665  -28.0097 O.3     1  UNL1       -0.3760
     23 H          49.7755   20.3502  -28.0830 H       1  UNL1        0.2110
@<TRIPOS>BOND
     1     1     2    2
     2     2     3   am
     3     3     5    1
     4     5     6   ar
     5     6     7   ar
     6     7     8   ar
     7     8     9   ar
     8     9    10   ar
     9    10    11   ar
    10    11    12   ar
    11    12    13   ar
    12    13    14   ar
    13     2    15    1
    14    15    16   ar
    15    16    17   ar
    16    17    21    1
    17    21    22    1
    18    17    18   ar
    19    18    19   ar
    20    14     5   ar
    21    19    15   ar
    22    13     8   ar
    23     3     4    1
    24    22    23    1
    25    18    20    1
@<TRIPOS>MOLECULE
*****
 23 25 0 0 0
SMALL
GASTEIGER

@<TRIPOS>ATOM
      1 O          46.5127   11.3981  -27.7588 O.2     1  UNL1       -0.2681
      2 C          46.2482   12.4609  -27.1364 C.2     1  UNL1        0.2700
      3 N          46.2312   13.7032  -27.8544 N.am    1  UNL1       -0.2645
      4 H          45.9397   13.6782  -28.8579 H       1  UNL1        0.1566
      5 C          46.7661   14.9286  -27.3302 C.ar    1  UNL1        0.1344
      6 C          45.9031   15.9056  -26.8147 C.ar    1  UNL1        0.0345
      7 C          46.4286   17.0980  -26.3122 C.ar    1  UNL1        0.0044
      8 C          47.8119   17.3128  -26.3318 C.ar    1  UNL1        0.0178
      9 C          48.3749   18.4960  -25.8307 C.ar    1  UNL1        0.0015
     10 C          49.7616   18.6779  -25.8644 C.ar    1  UNL1        0.0001
     11 C          50.5896   17.6839  -26.3967 C.ar    1  UNL1        0.0015
     12 C          50.0361   16.5020  -26.8993 C.ar    1  UNL1        0.0191
     13 C          48.6501   16.3115  -26.8699 C.ar    1  UNL1        0.0827
     14 N          48.1084   15.1629  -27.3544 N.ar    1  UNL1       -0.2305
     15 C          45.9196   12.3842  -25.7012 C.ar    1  UNL1        0.1553
     16 C          46.8182   12.3756  -24.6471 C.ar    1  UNL1        0.0420
     17 C          46.0167   12.3184  -23.5271 C.ar    1  UNL1        0.0827
     18 N          44.7269   12.2904  -23.9071 N.ar    1  UNL1       -0.2772
     19 N          44.6575   12.3417  -25.2272 N.ar    1  UNL1       -0.1682
     20 H          43.8960   12.2312  -23.2776 H       1  UNL1        0.1887
     21 C          46.4867   12.2014  -22.1142 C.3     1  UNL1        0.1823
     22 O          46.2808   10.8918  -21.6662 O.3     1  UNL1       -0.3760
     23 H          46.6108   10.8666  -20.7307 H       1  UNL1        0.2110
@<TRIPOS>BOND
     1     1     2    2
     2     2     3   am
     3     3     5    1
     4     5     6   ar
     5     6     7   ar
     6     7     8   ar
     7     8     9   ar
     8     9    10   ar
     9    10    11   ar
    10    11    12   ar
    11    12    13   ar
    12    13    14   ar
    13     2    15    1
    14    15    16   ar
    15    16    17   ar
    16    17    21    1
    17    21    22    1
    18    17    18   ar
    19    18    19   ar
    20    14     5   ar
    21    19    15   ar
    22    13     8   ar
    23     3     4    1
    24    22    23    1
    25    18    20    1
@<TRIPOS>MOLECULE
*****
 23 25 0 0 0
SMALL
GASTEIGER

@<TRIPOS>ATOM
      1 O          48.2143   10.9525  -23.6088 O.2     1  UNL1       -0.2681
      2 C          48.3456   11.6780  -24.6302 C.2     1  UNL1        0.2700
      3 N          47.2350   12.4754  -25.0659 N.am    1  UNL1       -0.2645
      4 H          46.5791   12.8325  -24.3345 H       1  UNL1        0.1566
      5 C          46.8762   12.6474  -26.4459 C.ar    1  UNL1        0.1344
      6 C          46.3906   13.8836  -26.8945 C.ar    1  UNL1        0.0345
      7 C          46.0372   14.0430  -28.2362 C.ar    1  UNL1        0.0044
      8 C          46.1642   12.9669  -29.1227 C.ar    1  UNL1        0.0178
      9 C          45.8239   13.0925  -30.4780 C.ar    1  UNL1        0.0015
     10 C          45.9641   11.9974  -31.3371 C.ar    1  UNL1        0.0001
     11 C          46.4423   10.7765  -30.8496 C.ar    1  UNL1        0.0015
     12 C          46.7826   10.6428  -29.4998 C.ar    1  UNL1        0.0191
     13 C          46.6454   11.7327  -28.6330 C.ar    1  UNL1        0.0827
     14 N          46.9781   11.6078  -27.3211 N.ar    1  UNL1       -0.2305
     15 C          49.6509   11.7173  -25.3144 C.ar    1  UNL1        0.1553
     16 C          50.1580   10.7642  -26.1822 C.ar    1  UNL1        0.0420
     17 C          51.3807   11.2759  -26.5609 C.ar    1  UNL1        0.0827
     18 N          51.5761   12.4559  -25.9457 N.ar    1  UNL1       -0.2772
     19 N          50.5244   12.7381  -25.1945 N.ar    1  UNL1       -0.1682
     20 H          52.4193   13.0662  -26.0281 H       1  UNL1        0.1887
     21 C          52.3866   10.5975  -27.4320 C.3     1  UNL1        0.1823
     22 O          52.9325   11.5310  -28.3200 O.3     1  UNL1       -0.3760
     23 H          53.5927   11.0339  -28.8693 H       1  UNL1        0.2110
@<TRIPOS>BOND
     1     1     2    2
     2     2     3   am
     3     3     5    1
     4     5     6   ar
     5     6     7   ar
     6     7     8   ar
     7     8     9   ar
     8     9    10   ar
     9    10    11   ar
    10    11    12   ar
    11    12    13   ar
    12    13    14   ar
    13     2    15    1
    14    15    16   ar
    15    16    17   ar
    16    17    21    1
    17    21    22    1
    18    17    18   ar
    19    18    19   ar
    20    14     5   ar
    21    19    15   ar
    22    13     8   ar
    23     3     4    1
    24    22    23    1
    25    18    20    1
@<TRIPOS>MOLECULE
*****
 23 25 0 0 0
SMALL
GASTEIGER

@<TRIPOS>ATOM
      1 O          49.6124   10.4179  -18.0707 O.2     1  UNL1       -0.2681
      2 C          49.8951   10.8803  -19.2078 C.2     1  UNL1        0.2700
      3 N          49.1159   10.4695  -20.3406 N.am    1  UNL1       -0.2645
      4 H          48.1085   10.2427  -20.1784 H       1  UNL1        0.1566
      5 C          49.6823   10.1753  -21.6272 C.ar    1  UNL1        0.1344
      6 C          49.5990    8.8768  -22.1488 C.ar    1  UNL1        0.0345
      7 C          50.1573    8.5953  -23.3976 C.ar    1  UNL1        0.0044
      8 C          50.8012    9.6088  -24.1175 C.ar    1  UNL1        0.0178
      9 C          51.3685    9.3633  -25.3769 C.ar    1  UNL1        0.0015
     10 C          52.0036   10.3992  -26.0701 C.ar    1  UNL1        0.0001
     11 C          52.0757   11.6799  -25.5117 C.ar    1  UNL1        0.0015
     12 C          51.5138   11.9324  -24.2563 C.ar    1  UNL1        0.0191
     13 C          50.8766   10.9023  -23.5555 C.ar    1  UNL1        0.0827
     14 N          50.3265   11.1445  -22.3365 N.ar    1  UNL1       -0.2305
     15 C          50.9874   11.8634  -19.3269 C.ar    1  UNL1        0.1553
     16 C          50.8837   13.1599  -19.8034 C.ar    1  UNL1        0.0420
     17 C          52.1628   13.6604  -19.6869 C.ar    1  UNL1        0.0827
     18 N          52.9653   12.7092  -19.1769 N.ar    1  UNL1       -0.2772
     19 N          52.2569   11.6165  -18.9439 N.ar    1  UNL1       -0.1682
     20 H          53.9893   12.7954  -18.9919 H       1  UNL1        0.1887
     21 C          52.6263   15.0049  -20.1435 C.3     1  UNL1        0.1823
     22 O          53.2931   15.6446  -19.0928 O.3     1  UNL1       -0.3760
     23 H          53.5820   16.5255  -19.4469 H       1  UNL1        0.2110
@<TRIPOS>BOND
     1     1     2    2
     2     2     3   am
     3     3     5    1
     4     5     6   ar
     5     6     7   ar
     6     7     8   ar
     7     8     9   ar
     8     9    10   ar
     9    10    11   ar
    10    11    12   ar
    11    12    13   ar
    12    13    14   ar
    13     2    15    1
    14    15    16   ar
    15    16    17   ar
    16    17    21    1
    17    21    22    1
    18    17    18   ar
    19    18    19   ar
    20    14     5   ar
    21    19    15   ar
    22    13     8   ar
    23     3     4    1
    24    22    23    1
    25    18    20    1
@<TRIPOS>MOLECULE
*****
 23 25 0 0 0
SMALL
GASTEIGER

@<TRIPOS>ATOM
      1 O          48.7880    7.6110  -31.4021 O.2     1  UNL1       -0.2681
      2 C          48.3038    8.2624  -30.4388 C.2     1  UNL1        0.2700
      3 N          47.0336    8.9093  -30.6036 N.am    1  UNL1       -0.2645
      4 H          46.3404    8.4590  -31.2434 H       1  UNL1        0.1566
      5 C          46.7395   10.2193  -30.0934 C.ar    1  UNL1        0.1344
      6 C          46.5247   11.2841  -30.9795 C.ar    1  UNL1        0.0345
      7 C          46.2455   12.5570  -30.4774 C.ar    1  UNL1        0.0044
      8 C          46.1879   12.7631  -29.0938 C.ar    1  UNL1        0.0178
      9 C          45.9047   14.0268  -28.5543 C.ar    1  UNL1        0.0015
     10 C          45.8535   14.1978  -27.1668 C.ar    1  UNL1        0.0001
     11 C          46.0841   13.1127  -26.3145 C.ar    1  UNL1        0.0015
     12 C          46.3681   11.8501  -26.8443 C.ar    1  UNL1        0.0191
     13 C          46.4216   11.6697  -28.2309 C.ar    1  UNL1        0.0827
     14 N          46.6942   10.4434  -28.7499 N.ar    1  UNL1       -0.2305
     15 C          49.0379    8.2978  -29.1608 C.ar    1  UNL1        0.1553
     16 C          49.7191    9.3803  -28.6289 C.ar    1  UNL1        0.0420
     17 C          50.2025    8.9110  -27.4264 C.ar    1  UNL1        0.0827
     18 N          49.8286    7.6286  -27.2694 N.ar    1  UNL1       -0.2772
     19 N          49.1102    7.2505  -28.3139 N.ar    1  UNL1       -0.1682
     20 H          50.0624    7.0087  -26.4624 H       1  UNL1        0.1887
     21 C          51.0876    9.6572  -26.4826 C.3     1  UNL1        0.1823
     22 O          51.0650    9.0277  -25.2331 O.3     1  UNL1       -0.3760
     23 H          51.6676    9.5565  -24.6483 H       1  UNL1        0.2110
@<TRIPOS>BOND
     1     1     2    2
     2     2     3   am
     3     3     5    1
     4     5     6   ar
     5     6     7   ar
     6     7     8   ar
     7     8     9   ar
     8     9    10   ar
     9    10    11   ar
    10    11    12   ar
    11    12    13   ar
    12    13    14   ar
    13     2    15    1
    14    15    16   ar
    15    16    17   ar
    16    17    21    1
    17    21    22    1
    18    17    18   ar
    19    18    19   ar
    20    14     5   ar
    21    19    15   ar
    22    13     8   ar
    23     3     4    1
    24    22    23    1
    25    18    20    1
