@<TRIPOS>MOLECULE
*****
 37 41 0 0 0
SMALL
GASTEIGER

@<TRIPOS>ATOM
      1 N          48.4101   15.1345  -23.4941 N.3     1  UNL1       -0.2679
      2 C          49.3137   15.8414  -24.4606 C.3     1  UNL1        0.0978
      3 C          49.5556   15.1111  -25.8097 C.3     1  UNL1        0.0224
      4 C          50.5607   15.8718  -26.7151 C.3     1  UNL1        0.0065
      5 C          50.6636   17.3941  -26.4512 C.3     1  UNL1        0.0277
      6 C          49.4132   17.9508  -25.8260 C.ar    1  UNL1       -0.0073
      7 C          48.9066   19.2060  -26.1874 C.ar    1  UNL1       -0.0015
      8 C          47.7284   19.6732  -25.6021 C.ar    1  UNL1        0.0203
      9 C          47.0668   18.8759  -24.6666 C.ar    1  UNL1        0.0985
     10 N          47.5831   17.6687  -24.3141 N.ar    1  UNL1       -0.2471
     11 C          48.7505   17.2018  -24.8406 C.ar    1  UNL1        0.0695
     12 C          48.9579   15.2517  -22.1126 C.3     1  UNL1        0.0725
     13 C          49.7735   13.9993  -21.7487 C.3     1  UNL1        0.0188
     14 C          51.2933   14.2387  -21.7893 C.3     1  UNL1        0.0185
     15 C          51.9922   13.3356  -22.8145 C.3     1  UNL1        0.0686
     16 N          51.3703   12.0038  -22.8316 N.3     1  UNL1       -0.2985
     17 H          52.0437   11.3501  -22.3660 H       1  UNL1        0.1232
     18 C          52.3264    9.7041  -28.0271 C.3     1  UNL1        0.0000
     19 C          51.5315   10.2797  -26.8351 C.3     1  UNL1        0.0001
     20 C          50.0247   10.1502  -27.1640 C.3     1  UNL1        0.0000
     21 C          51.9183   11.7842  -26.6296 C.3     1  UNL1        0.0014
     22 C          52.1798   12.1763  -25.1630 C.3     1  UNL1        0.0157
     23 C          51.1457   11.5415  -24.2167 C.3     1  UNL1        0.0540
     24 C          51.2117    9.9910  -24.2888 C.3     1  UNL1        0.0157
     25 C          51.8665    9.4435  -25.5725 C.3     1  UNL1        0.0014
     26 C          48.1633   13.7020  -23.8193 C.3     1  UNL1        0.0886
     27 C          46.6434   13.3972  -23.8809 C.3     1  UNL1        0.0748
     28 C          45.8411   14.5266  -24.5502 C.3     1  UNL1        0.0432
     29 C          45.9441   14.4894  -26.0460 C.ar    1  UNL1       -0.0234
     30 C          45.6303   15.6391  -26.7887 C.ar    1  UNL1       -0.0045
     31 C          45.6514   15.6049  -28.1848 C.ar    1  UNL1       -0.0003
     32 C          45.9737   14.4208  -28.8495 C.ar    1  UNL1       -0.0003
     33 C          46.2724   13.2679  -28.1195 C.ar    1  UNL1       -0.0032
     34 C          46.2448   13.2876  -26.7154 C.ar    1  UNL1       -0.0103
     35 C          46.6394   12.0412  -25.9599 C.3     1  UNL1        0.0953
     36 N          46.3568   12.0954  -24.5134 N.3     1  UNL1       -0.2934
     37 H          45.3405   11.8816  -24.3740 H       1  UNL1        0.1236
@<TRIPOS>BOND
     1    18    19    1
     2    19    20    1
     3    19    21    1
     4    21    22    1
     5    22    23    1
     6    23    16    1
     7    16    15    1
     8    15    14    1
     9    14    13    1
    10    13    12    1
    11    12     1    1
    12     1    26    1
    13    26    27    1
    14    27    28    1
    15    28    29    1
    16    29    30   ar
    17    30    31   ar
    18    31    32   ar
    19    32    33   ar
    20    33    34   ar
    21    34    35    1
    22    35    36    1
    23     1     2    1
    24     2     3    1
    25     3     4    1
    26     4     5    1
    27     5     6    1
    28     6     7   ar
    29     7     8   ar
    30     8     9   ar
    31     9    10   ar
    32    10    11   ar
    33    23    24    1
    34    24    25    1
    35    25    19    1
    36    36    27    1
    37    11     2    1
    38    34    29   ar
    39    11     6   ar
    40    16    17    1
    41    36    37    1
@<TRIPOS>MOLECULE
*****
 37 41 0 0 0
SMALL
GASTEIGER

@<TRIPOS>ATOM
      1 N          48.2457   14.8798  -24.9266 N.3     1  UNL1       -0.2679
      2 C          49.1736   16.0358  -25.1562 C.3     1  UNL1        0.0978
      3 C          50.0023   15.9805  -26.4685 C.3     1  UNL1        0.0224
      4 C          50.9899   17.1717  -26.5879 C.3     1  UNL1        0.0065
      5 C          50.5919   18.4397  -25.7932 C.3     1  UNL1        0.0277
      6 C          49.1090   18.5187  -25.5499 C.ar    1  UNL1       -0.0073
      7 C          48.4166   19.7347  -25.6181 C.ar    1  UNL1       -0.0015
      8 C          47.0360   19.7593  -25.4120 C.ar    1  UNL1        0.0203
      9 C          46.3630   18.5655  -25.1467 C.ar    1  UNL1        0.0985
     10 N          47.0540   17.3976  -25.0656 N.ar    1  UNL1       -0.2471
     11 C          48.4067   17.3471  -25.2256 C.ar    1  UNL1        0.0695
     12 C          48.8120   13.9770  -23.8842 C.3     1  UNL1        0.0725
     13 C          49.6106   14.7857  -22.8476 C.3     1  UNL1        0.0188
     14 C          50.9094   14.0859  -22.4098 C.3     1  UNL1        0.0185
     15 C          50.9597   12.6228  -22.8701 C.3     1  UNL1        0.0686
     16 N          52.2908   12.2994  -23.4034 N.3     1  UNL1       -0.2985
     17 H          52.7517   13.2105  -23.6379 H       1  UNL1        0.1232
     18 C          50.0312    9.2886  -27.7652 C.3     1  UNL1        0.0000
     19 C          51.0937   10.0508  -26.9443 C.3     1  UNL1        0.0001
     20 C          52.3867   10.1204  -27.7919 C.3     1  UNL1        0.0000
     21 C          51.3609    9.2872  -25.6023 C.3     1  UNL1        0.0014
     22 C          51.4112   10.1930  -24.3574 C.3     1  UNL1        0.0157
     23 C          52.1860   11.4928  -24.6367 C.3     1  UNL1        0.0540
     24 C          51.4995   12.3118  -25.7642 C.3     1  UNL1        0.0157
     25 C          50.5676   11.4841  -26.6715 C.3     1  UNL1        0.0014
     26 C          47.9251   14.0967  -26.1525 C.3     1  UNL1        0.0886
     27 C          46.3950   13.8839  -26.2949 C.3     1  UNL1        0.0748
     28 C          45.9060   14.0620  -27.7428 C.3     1  UNL1        0.0432
     29 C          46.1872   12.8576  -28.5912 C.ar    1  UNL1       -0.0234
     30 C          46.1873   12.9829  -29.9899 C.ar    1  UNL1       -0.0045
     31 C          46.3766   11.8602  -30.7989 C.ar    1  UNL1       -0.0003
     32 C          46.5550   10.6035  -30.2188 C.ar    1  UNL1       -0.0003
     33 C          46.5411   10.4665  -28.8287 C.ar    1  UNL1       -0.0032
     34 C          46.3417   11.5866  -28.0051 C.ar    1  UNL1       -0.0103
     35 C          46.4009   11.4108  -26.5066 C.3     1  UNL1        0.0953
     36 N          45.9540   12.5895  -25.7409 N.3     1  UNL1       -0.2934
     37 H          44.9064   12.5835  -25.7198 H       1  UNL1        0.1236
@<TRIPOS>BOND
     1    18    19    1
     2    19    20    1
     3    19    21    1
     4    21    22    1
     5    22    23    1
     6    23    16    1
     7    16    15    1
     8    15    14    1
     9    14    13    1
    10    13    12    1
    11    12     1    1
    12     1    26    1
    13    26    27    1
    14    27    28    1
    15    28    29    1
    16    29    30   ar
    17    30    31   ar
    18    31    32   ar
    19    32    33   ar
    20    33    34   ar
    21    34    35    1
    22    35    36    1
    23     1     2    1
    24     2     3    1
    25     3     4    1
    26     4     5    1
    27     5     6    1
    28     6     7   ar
    29     7     8   ar
    30     8     9   ar
    31     9    10   ar
    32    10    11   ar
    33    23    24    1
    34    24    25    1
    35    25    19    1
    36    36    27    1
    37    11     2    1
    38    34    29   ar
    39    11     6   ar
    40    16    17    1
    41    36    37    1
@<TRIPOS>MOLECULE
*****
 37 41 0 0 0
SMALL
GASTEIGER

@<TRIPOS>ATOM
      1 N          46.6343   13.0603  -26.6190 N.3     1  UNL1       -0.2679
      2 C          46.1188   12.6860  -27.9771 C.3     1  UNL1        0.0978
      3 C          46.3052   13.7589  -29.0844 C.3     1  UNL1        0.0224
      4 C          45.6758   13.3224  -30.4343 C.3     1  UNL1        0.0065
      5 C          45.5435   11.7928  -30.6355 C.3     1  UNL1        0.0277
      6 C          46.5400   11.0207  -29.8138 C.ar    1  UNL1       -0.0073
      7 C          47.1782    9.8787  -30.3148 C.ar    1  UNL1       -0.0015
      8 C          48.1165    9.2073  -29.5287 C.ar    1  UNL1        0.0203
      9 C          48.4104    9.6906  -28.2525 C.ar    1  UNL1        0.0985
     10 N          47.7674   10.7893  -27.7756 N.ar    1  UNL1       -0.2471
     11 C          46.8202   11.4442  -28.5049 C.ar    1  UNL1        0.0695
     12 C          45.4932   13.4014  -25.7223 C.3     1  UNL1        0.0725
     13 C          45.2638   12.2816  -24.6929 C.3     1  UNL1        0.0188
     14 C          46.1626   12.4134  -23.4506 C.3     1  UNL1        0.0185
     15 C          47.4584   11.6027  -23.5875 C.3     1  UNL1        0.0686
     16 N          48.5922   12.3513  -23.0265 N.3     1  UNL1       -0.2985
     17 H          48.4096   13.3649  -23.2187 H       1  UNL1        0.1232
     18 C          52.5143   11.3573  -27.1284 C.3     1  UNL1        0.0000
     19 C          51.9375   11.5532  -25.7096 C.3     1  UNL1        0.0001
     20 C          53.1157   11.4978  -24.7076 C.3     1  UNL1        0.0000
     21 C          50.9072   10.4127  -25.4047 C.3     1  UNL1        0.0014
     22 C          49.5954   10.8997  -24.7606 C.3     1  UNL1        0.0157
     23 C          49.8582   11.9675  -23.6842 C.3     1  UNL1        0.0540
     24 C          50.5486   13.2145  -24.3023 C.3     1  UNL1        0.0157
     25 C          51.2584   12.9461  -25.6442 C.3     1  UNL1        0.0014
     26 C          47.6235   14.1739  -26.6229 C.3     1  UNL1        0.0886
     27 C          47.0753   15.4103  -25.8629 C.3     1  UNL1        0.0748
     28 C          48.0087   15.8682  -24.7287 C.3     1  UNL1        0.0432
     29 C          49.1789   16.6566  -25.2372 C.ar    1  UNL1       -0.0234
     30 C          50.3170   16.8031  -24.4279 C.ar    1  UNL1       -0.0045
     31 C          51.3886   17.5916  -24.8532 C.ar    1  UNL1       -0.0003
     32 C          51.3271   18.2489  -26.0828 C.ar    1  UNL1       -0.0003
     33 C          50.1928   18.1216  -26.8881 C.ar    1  UNL1       -0.0032
     34 C          49.1050   17.3394  -26.4665 C.ar    1  UNL1       -0.0103
     35 C          47.9249   17.1703  -27.3932 C.3     1  UNL1        0.0953
     36 N          46.7525   16.5289  -26.7692 N.3     1  UNL1       -0.2934
     37 H          46.2400   17.2579  -26.2180 H       1  UNL1        0.1236
@<TRIPOS>BOND
     1    18    19    1
     2    19    20    1
     3    19    21    1
     4    21    22    1
     5    22    23    1
     6    23    16    1
     7    16    15    1
     8    15    14    1
     9    14    13    1
    10    13    12    1
    11    12     1    1
    12     1    26    1
    13    26    27    1
    14    27    28    1
    15    28    29    1
    16    29    30   ar
    17    30    31   ar
    18    31    32   ar
    19    32    33   ar
    20    33    34   ar
    21    34    35    1
    22    35    36    1
    23     1     2    1
    24     2     3    1
    25     3     4    1
    26     4     5    1
    27     5     6    1
    28     6     7   ar
    29     7     8   ar
    30     8     9   ar
    31     9    10   ar
    32    10    11   ar
    33    23    24    1
    34    24    25    1
    35    25    19    1
    36    36    27    1
    37    11     2    1
    38    34    29   ar
    39    11     6   ar
    40    16    17    1
    41    36    37    1
@<TRIPOS>MOLECULE
*****
 37 41 0 0 0
SMALL
GASTEIGER

@<TRIPOS>ATOM
      1 N          48.6553   12.5847  -24.5408 N.3     1  UNL1       -0.2679
      2 C          49.2705   11.2244  -24.3947 C.3     1  UNL1        0.0978
      3 C          50.8150   11.2004  -24.2335 C.3     1  UNL1        0.0224
      4 C          51.3743    9.7542  -24.1677 C.3     1  UNL1        0.0065
      5 C          50.3720    8.6819  -23.6745 C.3     1  UNL1        0.0277
      6 C          49.2860    9.2687  -22.8138 C.ar    1  UNL1       -0.0073
      7 C          48.8004    8.5979  -21.6839 C.ar    1  UNL1       -0.0015
      8 C          47.8107    9.1904  -20.8974 C.ar    1  UNL1        0.0203
      9 C          47.3230   10.4508  -21.2470 C.ar    1  UNL1        0.0985
     10 N          47.7924   11.0787  -22.3577 N.ar    1  UNL1       -0.2471
     11 C          48.7315   10.5097  -23.1654 C.ar    1  UNL1        0.0695
     12 C          47.6903   12.5831  -25.6771 C.3     1  UNL1        0.0725
     13 C          46.2437   12.5498  -25.1550 C.3     1  UNL1        0.0188
     14 C          45.4573   13.8320  -25.4804 C.3     1  UNL1        0.0185
     15 C          46.1417   14.6674  -26.5708 C.3     1  UNL1        0.0686
     16 N          45.6711   16.0590  -26.5204 N.3     1  UNL1       -0.2985
     17 H          45.0720   16.2060  -27.3673 H       1  UNL1        0.1232
     18 C          50.8870   18.3602  -25.6869 C.3     1  UNL1        0.0000
     19 C          49.4767   18.1780  -26.2884 C.3     1  UNL1        0.0001
     20 C          49.3063   19.2201  -27.4198 C.3     1  UNL1        0.0000
     21 C          48.4014   18.4039  -25.1713 C.3     1  UNL1        0.0014
     22 C          47.2771   17.3511  -25.1522 C.3     1  UNL1        0.0157
     23 C          46.8051   17.0043  -26.5752 C.3     1  UNL1        0.0540
     24 C          47.9700   16.4067  -27.4116 C.3     1  UNL1        0.0157
     25 C          49.3747   16.7457  -26.8748 C.3     1  UNL1        0.0014
     26 C          49.6400   13.6884  -24.7165 C.3     1  UNL1        0.0886
     27 C          49.3515   14.8554  -23.7358 C.3     1  UNL1        0.0748
     28 C          48.7895   14.3697  -22.3885 C.3     1  UNL1        0.0432
     29 C          49.8592   13.8304  -21.4862 C.ar    1  UNL1       -0.0234
     30 C          49.5034   12.9920  -20.4174 C.ar    1  UNL1       -0.0045
     31 C          50.4754   12.5366  -19.5238 C.ar    1  UNL1       -0.0003
     32 C          51.8067   12.9241  -19.6830 C.ar    1  UNL1       -0.0003
     33 C          52.1679   13.7702  -20.7342 C.ar    1  UNL1       -0.0032
     34 C          51.1977   14.2425  -21.6332 C.ar    1  UNL1       -0.0103
     35 C          51.6359   15.0998  -22.7963 C.3     1  UNL1        0.0953
     36 N          50.5259   15.7264  -23.5383 N.3     1  UNL1       -0.2934
     37 H          50.2176   16.5738  -23.0046 H       1  UNL1        0.1236
@<TRIPOS>BOND
     1    18    19    1
     2    19    20    1
     3    19    21    1
     4    21    22    1
     5    22    23    1
     6    23    16    1
     7    16    15    1
     8    15    14    1
     9    14    13    1
    10    13    12    1
    11    12     1    1
    12     1    26    1
    13    26    27    1
    14    27    28    1
    15    28    29    1
    16    29    30   ar
    17    30    31   ar
    18    31    32   ar
    19    32    33   ar
    20    33    34   ar
    21    34    35    1
    22    35    36    1
    23     1     2    1
    24     2     3    1
    25     3     4    1
    26     4     5    1
    27     5     6    1
    28     6     7   ar
    29     7     8   ar
    30     8     9   ar
    31     9    10   ar
    32    10    11   ar
    33    23    24    1
    34    24    25    1
    35    25    19    1
    36    36    27    1
    37    11     2    1
    38    34    29   ar
    39    11     6   ar
    40    16    17    1
    41    36    37    1
@<TRIPOS>MOLECULE
*****
 37 41 0 0 0
SMALL
GASTEIGER

@<TRIPOS>ATOM
      1 N          47.4898   11.8587  -25.7938 N.3     1  UNL1       -0.2679
      2 C          46.7242   12.4708  -26.9293 C.3     1  UNL1        0.0978
      3 C          47.2005   13.8796  -27.3771 C.3     1  UNL1        0.0224
      4 C          46.3072   14.4698  -28.5007 C.3     1  UNL1        0.0065
      5 C          45.5569   13.4252  -29.3629 C.3     1  UNL1        0.0277
      6 C          46.2470   12.0880  -29.3685 C.ar    1  UNL1       -0.0073
      7 C          46.3204   11.3034  -30.5268 C.ar    1  UNL1       -0.0015
      8 C          46.9937   10.0808  -30.4950 C.ar    1  UNL1        0.0203
      9 C          47.5918    9.6604  -29.3058 C.ar    1  UNL1        0.0985
     10 N          47.4943   10.4260  -28.1867 N.ar    1  UNL1       -0.2471
     11 C          46.8125   11.6063  -28.1772 C.ar    1  UNL1        0.0695
     12 C          46.6968   11.9634  -24.5357 C.3     1  UNL1        0.0725
     13 C          45.2753   12.4692  -24.8357 C.3     1  UNL1        0.0188
     14 C          45.0208   13.8936  -24.3115 C.3     1  UNL1        0.0185
     15 C          46.2524   14.4775  -23.6065 C.3     1  UNL1        0.0686
     16 N          46.3366   15.9264  -23.8393 N.3     1  UNL1       -0.2985
     17 H          45.4585   16.2035  -24.3389 H       1  UNL1        0.1232
     18 C          51.3412   18.1706  -25.6039 C.3     1  UNL1        0.0000
     19 C          50.0853   17.2725  -25.6175 C.3     1  UNL1        0.0001
     20 C          50.2006   16.3156  -26.8284 C.3     1  UNL1        0.0000
     21 C          48.8064   18.1683  -25.7491 C.3     1  UNL1        0.0014
     22 C          47.6636   17.7855  -24.7897 C.3     1  UNL1        0.0157
     23 C          47.4923   16.2591  -24.6973 C.3     1  UNL1        0.0540
     24 C          48.7843   15.5920  -24.1504 C.3     1  UNL1        0.0157
     25 C          50.0547   16.4521  -24.3016 C.3     1  UNL1        0.0014
     26 C          48.8463   12.4374  -25.5850 C.3     1  UNL1        0.0886
     27 C          49.7627   11.4491  -24.8167 C.3     1  UNL1        0.0748
     28 C          49.9446   10.1136  -25.5586 C.3     1  UNL1        0.0432
     29 C          50.9358   10.2150  -26.6796 C.ar    1  UNL1       -0.0234
     30 C          50.9308    9.2460  -27.6958 C.ar    1  UNL1       -0.0045
     31 C          51.8903    9.2821  -28.7101 C.ar    1  UNL1       -0.0003
     32 C          52.8684   10.2775  -28.7110 C.ar    1  UNL1       -0.0003
     33 C          52.8909   11.2369  -27.6959 C.ar    1  UNL1       -0.0032
     34 C          51.9373   11.2049  -26.6652 C.ar    1  UNL1       -0.0103
     35 C          51.9514   12.2977  -25.6233 C.3     1  UNL1        0.0953
     36 N          51.0668   12.0460  -24.4703 N.3     1  UNL1       -0.2934
     37 H          51.5624   11.3918  -23.8190 H       1  UNL1        0.1236
@<TRIPOS>BOND
     1    18    19    1
     2    19    20    1
     3    19    21    1
     4    21    22    1
     5    22    23    1
     6    23    16    1
     7    16    15    1
     8    15    14    1
     9    14    13    1
    10    13    12    1
    11    12     1    1
    12     1    26    1
    13    26    27    1
    14    27    28    1
    15    28    29    1
    16    29    30   ar
    17    30    31   ar
    18    31    32   ar
    19    32    33   ar
    20    33    34   ar
    21    34    35    1
    22    35    36    1
    23     1     2    1
    24     2     3    1
    25     3     4    1
    26     4     5    1
    27     5     6    1
    28     6     7   ar
    29     7     8   ar
    30     8     9   ar
    31     9    10   ar
    32    10    11   ar
    33    23    24    1
    34    24    25    1
    35    25    19    1
    36    36    27    1
    37    11     2    1
    38    34    29   ar
    39    11     6   ar
    40    16    17    1
    41    36    37    1
@<TRIPOS>MOLECULE
*****
 37 41 0 0 0
SMALL
GASTEIGER

@<TRIPOS>ATOM
      1 N          47.4717   11.7114  -23.9304 N.3     1  UNL1       -0.2679
      2 C          48.7967   12.2804  -24.3435 C.3     1  UNL1        0.0978
      3 C          49.3800   13.3718  -23.4051 C.3     1  UNL1        0.0224
      4 C          50.7103   13.9597  -23.9469 C.3     1  UNL1        0.0065
      5 C          51.5048   13.0279  -24.8946 C.3     1  UNL1        0.0277
      6 C          51.1892   11.5749  -24.6630 C.ar    1  UNL1       -0.0073
      7 C          52.1824   10.5886  -24.7212 C.ar    1  UNL1       -0.0015
      8 C          51.8512    9.2552  -24.4734 C.ar    1  UNL1        0.0203
      9 C          50.5308    8.9249  -24.1635 C.ar    1  UNL1        0.0985
     10 N          49.5766    9.8926  -24.1301 N.ar    1  UNL1       -0.2471
     11 C          49.8622   11.1971  -24.4035 C.ar    1  UNL1        0.0695
     12 C          46.4355   12.0565  -24.9452 C.3     1  UNL1        0.0725
     13 C          47.0861   12.3006  -26.3176 C.3     1  UNL1        0.0188
     14 C          46.1208   12.9308  -27.3372 C.3     1  UNL1        0.0185
     15 C          46.4664   14.3973  -27.6286 C.3     1  UNL1        0.0686
     16 N          46.3348   15.2064  -26.4085 N.3     1  UNL1       -0.2985
     17 H          45.3755   15.6272  -26.4272 H       1  UNL1        0.1232
     18 C          51.2097   18.1153  -25.4235 C.3     1  UNL1        0.0000
     19 C          49.8228   17.7972  -26.0230 C.3     1  UNL1        0.0001
     20 C          49.4852   18.9052  -27.0494 C.3     1  UNL1        0.0000
     21 C          48.7544   17.7704  -24.8771 C.3     1  UNL1        0.0014
     22 C          47.7839   16.5760  -24.9439 C.3     1  UNL1        0.0157
     23 C          47.3286   16.2994  -26.3875 C.3     1  UNL1        0.0540
     24 C          48.5430   15.9462  -27.2899 C.3     1  UNL1        0.0157
     25 C          49.9015   16.4242  -26.7400 C.3     1  UNL1        0.0014
     26 C          47.0151   12.1372  -22.5780 C.3     1  UNL1        0.0886
     27 C          46.7834   10.9117  -21.6554 C.3     1  UNL1        0.0748
     28 C          48.0916   10.3692  -21.0541 C.3     1  UNL1        0.0432
     29 C          48.5713   11.1934  -19.8965 C.ar    1  UNL1       -0.0234
     30 C          49.9133   11.1027  -19.4932 C.ar    1  UNL1       -0.0045
     31 C          50.3631   11.8074  -18.3744 C.ar    1  UNL1       -0.0003
     32 C          49.4749   12.5976  -17.6433 C.ar    1  UNL1       -0.0003
     33 C          48.1346   12.6820  -18.0277 C.ar    1  UNL1       -0.0032
     34 C          47.6685   11.9701  -19.1451 C.ar    1  UNL1       -0.0103
     35 C          46.2296   12.1394  -19.5704 C.3     1  UNL1        0.0953
     36 N          45.7868   11.1825  -20.6017 N.3     1  UNL1       -0.2934
     37 H          45.5601   10.2765  -20.1265 H       1  UNL1        0.1236
@<TRIPOS>BOND
     1    18    19    1
     2    19    20    1
     3    19    21    1
     4    21    22    1
     5    22    23    1
     6    23    16    1
     7    16    15    1
     8    15    14    1
     9    14    13    1
    10    13    12    1
    11    12     1    1
    12     1    26    1
    13    26    27    1
    14    27    28    1
    15    28    29    1
    16    29    30   ar
    17    30    31   ar
    18    31    32   ar
    19    32    33   ar
    20    33    34   ar
    21    34    35    1
    22    35    36    1
    23     1     2    1
    24     2     3    1
    25     3     4    1
    26     4     5    1
    27     5     6    1
    28     6     7   ar
    29     7     8   ar
    30     8     9   ar
    31     9    10   ar
    32    10    11   ar
    33    23    24    1
    34    24    25    1
    35    25    19    1
    36    36    27    1
    37    11     2    1
    38    34    29   ar
    39    11     6   ar
    40    16    17    1
    41    36    37    1
@<TRIPOS>MOLECULE
*****
 37 41 0 0 0
SMALL
GASTEIGER

@<TRIPOS>ATOM
      1 N          49.3081   14.7583  -25.4407 N.3     1  UNL1       -0.2679
      2 C          49.3078   16.2500  -25.5994 C.3     1  UNL1        0.0978
      3 C          49.0533   16.7713  -27.0400 C.3     1  UNL1        0.0224
      4 C          49.1475   18.3179  -27.1281 C.3     1  UNL1        0.0065
      5 C          48.8680   19.0714  -25.8045 C.3     1  UNL1        0.0277
      6 C          48.0071   18.2726  -24.8638 C.ar    1  UNL1       -0.0073
      7 C          47.0110   18.8773  -24.0861 C.ar    1  UNL1       -0.0015
      8 C          46.2165   18.0950  -23.2459 C.ar    1  UNL1        0.0203
      9 C          46.4234   16.7153  -23.1988 C.ar    1  UNL1        0.0985
     10 N          47.4072   16.1483  -23.9463 N.ar    1  UNL1       -0.2471
     11 C          48.2228   16.8902  -24.7477 C.ar    1  UNL1        0.0695
     12 C          50.6988   14.2759  -25.2048 C.3     1  UNL1        0.0725
     13 C          50.8699   12.8437  -25.7394 C.3     1  UNL1        0.0188
     14 C          51.8171   11.9896  -24.8781 C.3     1  UNL1        0.0185
     15 C          51.1480   10.6960  -24.3943 C.3     1  UNL1        0.0686
     16 N          50.8802   10.7672  -22.9508 N.3     1  UNL1       -0.2985
     17 H          51.0727    9.8141  -22.5606 H       1  UNL1        0.1232
     18 C          45.9886   11.9296  -20.1369 C.3     1  UNL1        0.0000
     19 C          46.9740   11.8216  -21.3207 C.3     1  UNL1        0.0001
     20 C          46.2876   12.4335  -22.5655 C.3     1  UNL1        0.0000
     21 C          47.3205   10.3145  -21.5735 C.3     1  UNL1        0.0014
     22 C          48.8199   10.0372  -21.7918 C.3     1  UNL1        0.0157
     23 C          49.4661   11.1065  -22.6902 C.3     1  UNL1        0.0540
     24 C          49.3564   12.5127  -22.0390 C.3     1  UNL1        0.0157
     25 C          48.2493   12.6330  -20.9730 C.3     1  UNL1        0.0014
     26 C          48.7046   14.0189  -26.5842 C.3     1  UNL1        0.0886
     27 C          47.2357   13.6229  -26.2803 C.3     1  UNL1        0.0748
     28 C          46.2749   13.9957  -27.4228 C.3     1  UNL1        0.0432
     29 C          46.3382   13.0212  -28.5611 C.ar    1  UNL1       -0.0234
     30 C          45.8568   13.4023  -29.8240 C.ar    1  UNL1       -0.0045
     31 C          45.8414   12.4870  -30.8789 C.ar    1  UNL1       -0.0003
     32 C          46.2946   11.1824  -30.6782 C.ar    1  UNL1       -0.0003
     33 C          46.7610   10.7895  -29.4214 C.ar    1  UNL1       -0.0032
     34 C          46.7720   11.6982  -28.3505 C.ar    1  UNL1       -0.0103
     35 C          47.3463   11.2578  -27.0253 C.3     1  UNL1        0.0953
     36 N          47.1014   12.1993  -25.9168 N.3     1  UNL1       -0.2934
     37 H          46.1258   12.0421  -25.5683 H       1  UNL1        0.1236
@<TRIPOS>BOND
     1    18    19    1
     2    19    20    1
     3    19    21    1
     4    21    22    1
     5    22    23    1
     6    23    16    1
     7    16    15    1
     8    15    14    1
     9    14    13    1
    10    13    12    1
    11    12     1    1
    12     1    26    1
    13    26    27    1
    14    27    28    1
    15    28    29    1
    16    29    30   ar
    17    30    31   ar
    18    31    32   ar
    19    32    33   ar
    20    33    34   ar
    21    34    35    1
    22    35    36    1
    23     1     2    1
    24     2     3    1
    25     3     4    1
    26     4     5    1
    27     5     6    1
    28     6     7   ar
    29     7     8   ar
    30     8     9   ar
    31     9    10   ar
    32    10    11   ar
    33    23    24    1
    34    24    25    1
    35    25    19    1
    36    36    27    1
    37    11     2    1
    38    34    29   ar
    39    11     6   ar
    40    16    17    1
    41    36    37    1
@<TRIPOS>MOLECULE
*****
 37 41 0 0 0
SMALL
GASTEIGER

@<TRIPOS>ATOM
      1 N          48.6167   12.6754  -25.1911 N.3     1  UNL1       -0.2679
      2 C          49.7005   11.7392  -25.6373 C.3     1  UNL1        0.0978
      3 C          51.1270   12.3493  -25.7076 C.3     1  UNL1        0.0224
      4 C          52.1703   11.3372  -26.2515 C.3     1  UNL1        0.0065
      5 C          51.8067    9.8452  -26.0528 C.3     1  UNL1        0.0277
      6 C          50.8646    9.6363  -24.8981 C.ar    1  UNL1       -0.0073
      7 C          50.9898    8.5387  -24.0366 C.ar    1  UNL1       -0.0015
      8 C          50.1107    8.3971  -22.9613 C.ar    1  UNL1        0.0203
      9 C          49.1205    9.3595  -22.7564 C.ar    1  UNL1        0.0985
     10 N          49.0020   10.4079  -23.6136 N.ar    1  UNL1       -0.2471
     11 C          49.8216   10.5534  -24.6931 C.ar    1  UNL1        0.0695
     12 C          47.2904   12.1621  -25.6381 C.3     1  UNL1        0.0725
     13 C          46.2047   13.2344  -25.4440 C.3     1  UNL1        0.0188
     14 C          45.3107   12.9701  -24.2194 C.3     1  UNL1        0.0185
     15 C          46.0894   12.3249  -23.0652 C.3     1  UNL1        0.0686
     16 N          47.0479   13.2829  -22.4957 N.3     1  UNL1       -0.2985
     17 H          47.6439   13.6210  -23.2882 H       1  UNL1        0.1232
     18 C          49.7304   12.1498  -17.5241 C.3     1  UNL1        0.0000
     19 C          49.2240   11.9292  -18.9660 C.3     1  UNL1        0.0001
     20 C          49.6241   10.4969  -19.3944 C.3     1  UNL1        0.0000
     21 C          49.8819   12.9873  -19.9162 C.3     1  UNL1        0.0014
     22 C          48.9001   13.6541  -20.8981 C.3     1  UNL1        0.0157
     23 C          47.9185   12.6308  -21.4959 C.3     1  UNL1        0.0540
     24 C          47.0631   11.9707  -20.3796 C.3     1  UNL1        0.0157
     25 C          47.6790   12.0655  -18.9695 C.3     1  UNL1        0.0014
     26 C          48.7935   14.0821  -25.6481 C.3     1  UNL1        0.0886
     27 C          49.4279   14.9556  -24.5340 C.3     1  UNL1        0.0748
     28 C          50.4331   15.9805  -25.0874 C.3     1  UNL1        0.0432
     29 C          49.7555   17.1766  -25.6869 C.ar    1  UNL1       -0.0234
     30 C          50.4644   17.9970  -26.5792 C.ar    1  UNL1       -0.0045
     31 C          49.8756   19.1544  -27.0935 C.ar    1  UNL1       -0.0003
     32 C          48.5805   19.5077  -26.7120 C.ar    1  UNL1       -0.0003
     33 C          47.8728   18.7060  -25.8131 C.ar    1  UNL1       -0.0032
     34 C          48.4583   17.5452  -25.2816 C.ar    1  UNL1       -0.0103
     35 C          47.6386   16.6677  -24.3661 C.3     1  UNL1        0.0953
     36 N          48.4126   15.6112  -23.6878 N.3     1  UNL1       -0.2934
     37 H          48.9010   16.0437  -22.8679 H       1  UNL1        0.1236
@<TRIPOS>BOND
     1    18    19    1
     2    19    20    1
     3    19    21    1
     4    21    22    1
     5    22    23    1
     6    23    16    1
     7    16    15    1
     8    15    14    1
     9    14    13    1
    10    13    12    1
    11    12     1    1
    12     1    26    1
    13    26    27    1
    14    27    28    1
    15    28    29    1
    16    29    30   ar
    17    30    31   ar
    18    31    32   ar
    19    32    33   ar
    20    33    34   ar
    21    34    35    1
    22    35    36    1
    23     1     2    1
    24     2     3    1
    25     3     4    1
    26     4     5    1
    27     5     6    1
    28     6     7   ar
    29     7     8   ar
    30     8     9   ar
    31     9    10   ar
    32    10    11   ar
    33    23    24    1
    34    24    25    1
    35    25    19    1
    36    36    27    1
    37    11     2    1
    38    34    29   ar
    39    11     6   ar
    40    16    17    1
    41    36    37    1
@<TRIPOS>MOLECULE
*****
 37 41 0 0 0
SMALL
GASTEIGER

@<TRIPOS>ATOM
      1 N          47.1778   13.7673  -24.2299 N.3     1  UNL1       -0.2679
      2 C          47.0489   13.1811  -25.6047 C.3     1  UNL1        0.0978
      3 C          46.0808   11.9733  -25.7310 C.3     1  UNL1        0.0224
      4 C          46.0674   11.3813  -27.1655 C.3     1  UNL1        0.0065
      5 C          46.4755   12.3662  -28.2886 C.3     1  UNL1        0.0277
      6 C          46.2384   13.8013  -27.9031 C.ar    1  UNL1       -0.0073
      7 C          45.7571   14.7402  -28.8248 C.ar    1  UNL1       -0.0015
      8 C          45.5256   16.0555  -28.4183 C.ar    1  UNL1        0.0203
      9 C          45.7720   16.4148  -27.0921 C.ar    1  UNL1        0.0985
     10 N          46.2569   15.4950  -26.2162 N.ar    1  UNL1       -0.2471
     11 C          46.5276   14.2131  -26.5924 C.ar    1  UNL1        0.0695
     12 C          46.4910   12.8890  -23.2402 C.3     1  UNL1        0.0725
     13 C          47.3342   12.7580  -21.9603 C.3     1  UNL1        0.0188
     14 C          47.2760   11.3492  -21.3435 C.3     1  UNL1        0.0185
     15 C          47.7933   10.2747  -22.3094 C.3     1  UNL1        0.0686
     16 N          49.2537   10.3700  -22.4464 N.3     1  UNL1       -0.2985
     17 H          49.5404   11.2741  -22.0015 H       1  UNL1        0.1232
     18 C          52.4854   10.8975  -27.1871 C.3     1  UNL1        0.0000
     19 C          51.2651   10.5348  -26.3135 C.3     1  UNL1        0.0001
     20 C          50.2320    9.8192  -27.2167 C.3     1  UNL1        0.0000
     21 C          50.6494   11.8435  -25.7104 C.3     1  UNL1        0.0014
     22 C          50.3029   11.7487  -24.2125 C.3     1  UNL1        0.0157
     23 C          49.6519   10.3974  -23.8688 C.3     1  UNL1        0.0540
     24 C          50.6197    9.2237  -24.1842 C.3     1  UNL1        0.0157
     25 C          51.7342    9.5739  -25.1900 C.3     1  UNL1        0.0014
     26 C          46.6683   15.1615  -24.1064 C.3     1  UNL1        0.0886
     27 C          47.6091   16.0236  -23.2241 C.3     1  UNL1        0.0748
     28 C          49.0219   16.1541  -23.8194 C.3     1  UNL1        0.0432
     29 C          49.0819   17.1620  -24.9284 C.ar    1  UNL1       -0.0234
     30 C          50.1513   17.1254  -25.8378 C.ar    1  UNL1       -0.0045
     31 C          50.2637   18.0975  -26.8344 C.ar    1  UNL1       -0.0003
     32 C          49.3172   19.1192  -26.9233 C.ar    1  UNL1       -0.0003
     33 C          48.2583   19.1727  -26.0138 C.ar    1  UNL1       -0.0032
     34 C          48.1404   18.2066  -25.0012 C.ar    1  UNL1       -0.0103
     35 C          46.9458   18.2575  -24.0791 C.3     1  UNL1        0.0953
     36 N          47.0363   17.3490  -22.9208 N.3     1  UNL1       -0.2934
     37 H          47.6393   17.8071  -22.1966 H       1  UNL1        0.1236
@<TRIPOS>BOND
     1    18    19    1
     2    19    20    1
     3    19    21    1
     4    21    22    1
     5    22    23    1
     6    23    16    1
     7    16    15    1
     8    15    14    1
     9    14    13    1
    10    13    12    1
    11    12     1    1
    12     1    26    1
    13    26    27    1
    14    27    28    1
    15    28    29    1
    16    29    30   ar
    17    30    31   ar
    18    31    32   ar
    19    32    33   ar
    20    33    34   ar
    21    34    35    1
    22    35    36    1
    23     1     2    1
    24     2     3    1
    25     3     4    1
    26     4     5    1
    27     5     6    1
    28     6     7   ar
    29     7     8   ar
    30     8     9   ar
    31     9    10   ar
    32    10    11   ar
    33    23    24    1
    34    24    25    1
    35    25    19    1
    36    36    27    1
    37    11     2    1
    38    34    29   ar
    39    11     6   ar
    40    16    17    1
    41    36    37    1
