@<TRIPOS>MOLECULE
*****
 40 44 0 0 0
SMALL
GASTEIGER

@<TRIPOS>ATOM
      1 C          -8.8203   -9.3562   32.3779 C.3     1  UNL1        0.1333
      2 N          -8.9043  -10.6163   31.6387 N.ar    1  UNL1       -0.2950
      3 C          -9.8574  -11.5866   31.7220 C.ar    1  UNL1        0.2019
      4 N          -9.6907  -12.5937   30.8275 N.ar    1  UNL1       -0.2134
      5 C          -8.5615  -12.2418   30.1871 C.ar    1  UNL1        0.1033
      6 C          -7.9278  -12.9350   29.1589 C.ar    1  UNL1        0.0284
      7 C          -6.7427  -12.3918   28.6122 C.ar    1  UNL1        0.0922
      8 C          -6.2124  -11.1879   29.1535 C.ar    1  UNL1        0.1782
      9 C          -6.8988  -10.4994   30.1763 C.ar    1  UNL1        0.1897
     10 C          -8.0770  -11.0621   30.6747 C.ar    1  UNL1        0.1173
     11 O          -6.3729   -9.3013   30.6686 O.3     1  UNL1       -0.4669
     12 C          -5.3161   -8.6253   29.9852 C.3     1  UNL1        0.2527
     13 C          -4.3080   -9.6417   29.4371 C.3     1  UNL1        0.2526
     14 O          -4.9873  -10.6705   28.7134 O.3     1  UNL1       -0.4682
     15 C          -6.0571  -13.1132   27.5194 C.2     1  UNL1        0.2526
     16 O          -4.9621  -12.6635   27.0849 O.2     1  UNL1       -0.2697
     17 N          -6.6246  -14.3115   26.9599 N.am    1  UNL1       -0.2803
     18 H          -7.5542  -14.6359   27.3079 H       1  UNL1        0.1552
     19 C          -6.0291  -15.0577   25.8853 C.ar    1  UNL1        0.0506
     20 C          -4.9907  -15.9743   26.1181 C.ar    1  UNL1        0.0170
     21 C          -4.4490  -16.7071   25.0606 C.ar    1  UNL1        0.0309
     22 C          -4.9433  -16.5450   23.7641 C.ar    1  UNL1        0.1441
     23 F          -4.4020  -17.2738   22.7548 F       1  UNL1       -0.2042
     24 C          -5.9971  -15.6472   23.5132 C.ar    1  UNL1        0.1000
     25 C          -6.5412  -14.9161   24.5866 C.ar    1  UNL1        0.0208
     26 C          -6.5333  -15.4964   22.1095 C.3     1  UNL1        0.4207
     27 F          -6.8370  -16.7214   21.5407 F       1  UNL1       -0.1658
     28 F          -5.5871  -14.8675   21.3208 F       1  UNL1       -0.1658
     29 F          -7.6835  -14.7284   22.1335 F       1  UNL1       -0.1658
     30 N         -10.9510  -11.5735   32.6500 N.pl3   1  UNL1       -0.2814
     31 H         -11.5320  -10.7067   32.6955 H       1  UNL1        0.1551
     32 C         -11.3917  -12.7285   33.3852 C.ar    1  UNL1        0.0893
     33 C         -10.6552  -13.2032   34.4889 C.ar    1  UNL1        0.1543
     34 F          -9.5025  -12.5971   34.8697 F       1  UNL1       -0.2028
     35 C         -11.0880  -14.3291   35.1913 C.ar    1  UNL1        0.0314
     36 C         -12.2462  -14.9991   34.7993 C.ar    1  UNL1        0.0090
     37 C         -12.9811  -14.5531   33.6972 C.ar    1  UNL1        0.0420
     38 I         -14.7271  -15.6319   33.1662 I       1  UNL1       -0.0416
     39 C         -12.5542  -13.4184   32.9814 C.ar    1  UNL1        0.0786
     40 CL        -13.4931  -12.8321   31.6085 Cl      1  UNL1       -0.0804
@<TRIPOS>BOND
     1     1     2    1
     2     2     3   ar
     3     3    30    1
     4    30    32    1
     5    32    33   ar
     6    33    34    1
     7    33    35   ar
     8    35    36   ar
     9    36    37   ar
    10    37    38    1
    11    37    39   ar
    12    39    40    1
    13     3     4   ar
    14     4     5   ar
    15     5     6   ar
    16     6     7   ar
    17     7    15    1
    18    15    16    2
    19    15    17   am
    20    17    19    1
    21    19    20   ar
    22    20    21   ar
    23    21    22   ar
    24    22    23    1
    25    22    24   ar
    26    24    26    1
    27    26    27    1
    28    26    28    1
    29    26    29    1
    30    24    25   ar
    31     7     8   ar
    32     8     9   ar
    33     9    10   ar
    34     9    11    1
    35    11    12    1
    36    12    13    1
    37    13    14    1
    38    10     2   ar
    39    39    32   ar
    40    10     5   ar
    41    25    19   ar
    42    14     8    1
    43    30    31    1
    44    17    18    1
@<TRIPOS>MOLECULE
*****
 40 44 0 0 0
SMALL
GASTEIGER

@<TRIPOS>ATOM
      1 C          -7.4602  -17.9352   21.6356 C.3     1  UNL1        0.1333
      2 N          -6.7656  -16.9419   22.4556 N.ar    1  UNL1       -0.2950
      3 C          -5.6675  -16.1996   22.1396 C.ar    1  UNL1        0.2019
      4 N          -5.3262  -15.2964   23.0936 N.ar    1  UNL1       -0.2134
      5 C          -6.2385  -15.5187   24.0566 C.ar    1  UNL1        0.1033
      6 C          -6.3482  -14.8594   25.2783 C.ar    1  UNL1        0.0284
      7 C          -7.3867  -15.2417   26.1579 C.ar    1  UNL1        0.0922
      8 C          -8.2534  -16.3089   25.7925 C.ar    1  UNL1        0.1782
      9 C          -8.1283  -16.9336   24.5333 C.ar    1  UNL1        0.1897
     10 C          -7.0995  -16.5116   23.6867 C.ar    1  UNL1        0.1173
     11 O          -9.0133  -17.9584   24.1855 O.3     1  UNL1       -0.4669
     12 C         -10.1949  -18.2020   24.9506 C.3     1  UNL1        0.2527
     13 C          -9.9000  -18.0296   26.4450 C.3     1  UNL1        0.2526
     14 O          -9.2284  -16.7890   26.6762 O.3     1  UNL1       -0.4682
     15 C          -7.5192  -14.5520   27.4586 C.2     1  UNL1        0.2526
     16 O          -6.5416  -14.5597   28.2551 O.2     1  UNL1       -0.2697
     17 N          -8.7407  -13.8786   27.8127 N.am    1  UNL1       -0.2803
     18 H          -9.5490  -13.9266   27.1533 H       1  UNL1        0.1552
     19 C          -8.9532  -13.2028   29.0634 C.ar    1  UNL1        0.0506
     20 C          -8.0760  -12.2024   29.5132 C.ar    1  UNL1        0.0170
     21 C          -8.3209  -11.5419   30.7183 C.ar    1  UNL1        0.0309
     22 C          -9.4470  -11.8607   31.4811 C.ar    1  UNL1        0.1441
     23 F          -9.6642  -11.1994   32.6465 F       1  UNL1       -0.2042
     24 C         -10.3491  -12.8452   31.0380 C.ar    1  UNL1        0.1000
     25 C         -10.0973  -13.5026   29.8185 C.ar    1  UNL1        0.0208
     26 C         -11.5719  -13.1659   31.8642 C.3     1  UNL1        0.4207
     27 F         -11.3608  -12.9231   33.2106 F       1  UNL1       -0.1658
     28 F         -11.8984  -14.5001   31.7036 F       1  UNL1       -0.1658
     29 F         -12.6337  -12.3870   31.4409 F       1  UNL1       -0.1658
     30 N          -4.9229  -16.3287   20.9205 N.pl3   1  UNL1       -0.2814
     31 H          -4.8464  -15.4829   20.3125 H       1  UNL1        0.1551
     32 C          -4.1435  -17.4876   20.5768 C.ar    1  UNL1        0.0893
     33 C          -4.7234  -18.5621   19.8731 C.ar    1  UNL1        0.1543
     34 F          -6.0343  -18.5392   19.5236 F       1  UNL1       -0.2028
     35 C          -3.9599  -19.6852   19.5504 C.ar    1  UNL1        0.0314
     36 C          -2.6207  -19.7572   19.9318 C.ar    1  UNL1        0.0090
     37 C          -2.0323  -18.7088   20.6446 C.ar    1  UNL1        0.0420
     38 I           0.0076  -18.9007   21.1891 I       1  UNL1       -0.0416
     39 C          -2.7927  -17.5709   20.9753 C.ar    1  UNL1        0.0786
     40 CL         -2.0485  -16.2311   21.8479 Cl      1  UNL1       -0.0804
@<TRIPOS>BOND
     1     1     2    1
     2     2     3   ar
     3     3    30    1
     4    30    32    1
     5    32    33   ar
     6    33    34    1
     7    33    35   ar
     8    35    36   ar
     9    36    37   ar
    10    37    38    1
    11    37    39   ar
    12    39    40    1
    13     3     4   ar
    14     4     5   ar
    15     5     6   ar
    16     6     7   ar
    17     7    15    1
    18    15    16    2
    19    15    17   am
    20    17    19    1
    21    19    20   ar
    22    20    21   ar
    23    21    22   ar
    24    22    23    1
    25    22    24   ar
    26    24    26    1
    27    26    27    1
    28    26    28    1
    29    26    29    1
    30    24    25   ar
    31     7     8   ar
    32     8     9   ar
    33     9    10   ar
    34     9    11    1
    35    11    12    1
    36    12    13    1
    37    13    14    1
    38    10     2   ar
    39    39    32   ar
    40    10     5   ar
    41    25    19   ar
    42    14     8    1
    43    30    31    1
    44    17    18    1
@<TRIPOS>MOLECULE
*****
 40 44 0 0 0
SMALL
GASTEIGER

@<TRIPOS>ATOM
      1 C          -9.1623  -15.1457   27.8135 C.3     1  UNL1        0.1333
      2 N          -7.8198  -14.7802   27.3599 N.ar    1  UNL1       -0.2950
      3 C          -6.8897  -14.0130   27.9947 C.ar    1  UNL1        0.2019
      4 N          -5.7022  -13.9424   27.3412 N.ar    1  UNL1       -0.2134
      5 C          -5.9254  -14.6737   26.2346 C.ar    1  UNL1        0.1033
      6 C          -5.0268  -14.9311   25.2023 C.ar    1  UNL1        0.0284
      7 C          -5.4574  -15.7321   24.1200 C.ar    1  UNL1        0.0922
      8 C          -6.7971  -16.2100   24.0951 C.ar    1  UNL1        0.1782
      9 C          -7.6695  -15.9517   25.1737 C.ar    1  UNL1        0.1897
     10 C          -7.1967  -15.1714   26.2324 C.ar    1  UNL1        0.1173
     11 O          -8.9713  -16.4600   25.1394 O.3     1  UNL1       -0.4669
     12 C          -9.3507  -17.4483   24.1801 C.3     1  UNL1        0.2527
     13 C          -8.6972  -17.1471   22.8266 C.3     1  UNL1        0.2526
     14 O          -7.2961  -16.9182   22.9944 O.3     1  UNL1       -0.4682
     15 C          -4.5168  -16.0168   23.0159 C.2     1  UNL1        0.2526
     16 O          -4.7700  -15.5627   21.8670 O.2     1  UNL1       -0.2697
     17 N          -3.3286  -16.7959   23.2445 N.am    1  UNL1       -0.2803
     18 H          -3.1674  -17.1970   24.1951 H       1  UNL1        0.1552
     19 C          -2.3769  -17.1307   22.2207 C.ar    1  UNL1        0.0506
     20 C          -2.0910  -16.2446   21.1691 C.ar    1  UNL1        0.0170
     21 C          -1.1415  -16.5823   20.2032 C.ar    1  UNL1        0.0309
     22 C          -0.4582  -17.7983   20.2808 C.ar    1  UNL1        0.1441
     23 F           0.4638  -18.0996   19.3311 F       1  UNL1       -0.2042
     24 C          -0.7150  -18.6907   21.3377 C.ar    1  UNL1        0.1000
     25 C          -1.6704  -18.3397   22.3107 C.ar    1  UNL1        0.0208
     26 C           0.0449  -19.9933   21.4185 C.3     1  UNL1        0.4207
     27 F           0.6081  -20.3363   20.2014 F       1  UNL1       -0.1658
     28 F          -0.8156  -21.0044   21.8058 F       1  UNL1       -0.1658
     29 F           1.0586  -19.8805   22.3529 F       1  UNL1       -0.1658
     30 N          -7.1082  -13.3357   29.2401 N.pl3   1  UNL1       -0.2814
     31 H          -6.9818  -13.8895   30.1166 H       1  UNL1        0.1551
     32 C          -7.3190  -11.9176   29.3545 C.ar    1  UNL1        0.0893
     33 C          -6.2630  -11.0125   29.1277 C.ar    1  UNL1        0.1543
     34 F          -5.0187  -11.4571   28.8191 F       1  UNL1       -0.2028
     35 C          -6.4765   -9.6383   29.2481 C.ar    1  UNL1        0.0314
     36 C          -7.7335   -9.1514   29.6045 C.ar    1  UNL1        0.0090
     37 C          -8.7890  -10.0343   29.8495 C.ar    1  UNL1        0.0420
     38 I         -10.6663   -9.2110   30.3904 I       1  UNL1       -0.0416
     39 C          -8.5853  -11.4224   29.7308 C.ar    1  UNL1        0.0786
     40 CL         -9.9205  -12.5406   30.0087 Cl      1  UNL1       -0.0804
@<TRIPOS>BOND
     1     1     2    1
     2     2     3   ar
     3     3    30    1
     4    30    32    1
     5    32    33   ar
     6    33    34    1
     7    33    35   ar
     8    35    36   ar
     9    36    37   ar
    10    37    38    1
    11    37    39   ar
    12    39    40    1
    13     3     4   ar
    14     4     5   ar
    15     5     6   ar
    16     6     7   ar
    17     7    15    1
    18    15    16    2
    19    15    17   am
    20    17    19    1
    21    19    20   ar
    22    20    21   ar
    23    21    22   ar
    24    22    23    1
    25    22    24   ar
    26    24    26    1
    27    26    27    1
    28    26    28    1
    29    26    29    1
    30    24    25   ar
    31     7     8   ar
    32     8     9   ar
    33     9    10   ar
    34     9    11    1
    35    11    12    1
    36    12    13    1
    37    13    14    1
    38    10     2   ar
    39    39    32   ar
    40    10     5   ar
    41    25    19   ar
    42    14     8    1
    43    30    31    1
    44    17    18    1
@<TRIPOS>MOLECULE
*****
 40 44 0 0 0
SMALL
GASTEIGER

@<TRIPOS>ATOM
      1 C          -7.4355  -17.9389   21.5808 C.3     1  UNL1        0.1333
      2 N          -6.7503  -16.9555   22.4204 N.ar    1  UNL1       -0.2950
      3 C          -5.6451  -16.2140   22.1281 C.ar    1  UNL1        0.2019
      4 N          -5.3155  -15.3207   23.0954 N.ar    1  UNL1       -0.2134
      5 C          -6.2432  -15.5487   24.0422 C.ar    1  UNL1        0.1033
      6 C          -6.3695  -14.9002   25.2681 C.ar    1  UNL1        0.0284
      7 C          -7.4226  -15.2869   26.1282 C.ar    1  UNL1        0.0922
      8 C          -8.2871  -16.3478   25.7397 C.ar    1  UNL1        0.1782
      9 C          -8.1447  -16.9614   24.4770 C.ar    1  UNL1        0.1897
     10 C          -7.1017  -16.5353   23.6502 C.ar    1  UNL1        0.1173
     11 O          -9.0276  -17.9800   24.1063 O.3     1  UNL1       -0.4669
     12 C         -10.2216  -18.2265   24.8510 C.3     1  UNL1        0.2527
     13 C          -9.9491  -18.0688   26.3512 C.3     1  UNL1        0.2526
     14 O          -9.2771  -16.8326   26.6040 O.3     1  UNL1       -0.4682
     15 C          -7.5728  -14.6087   27.4330 C.2     1  UNL1        0.2526
     16 O          -6.6424  -14.7015   28.2790 O.2     1  UNL1       -0.2697
     17 N          -8.7582  -13.8508   27.7356 N.am    1  UNL1       -0.2803
     18 H          -9.5315  -13.8283   27.0341 H       1  UNL1        0.1552
     19 C          -8.9864  -13.1797   28.9860 C.ar    1  UNL1        0.0506
     20 C         -10.1499  -13.4096   29.7384 C.ar    1  UNL1        0.0170
     21 C         -10.3339  -12.7663   30.9635 C.ar    1  UNL1        0.0309
     22 C          -9.3574  -11.8982   31.4579 C.ar    1  UNL1        0.1441
     23 F          -9.5593  -11.2895   32.6544 F       1  UNL1       -0.2042
     24 C          -8.1756  -11.6703   30.7295 C.ar    1  UNL1        0.1000
     25 C          -7.9956  -12.3277   29.4973 C.ar    1  UNL1        0.0208
     26 C          -7.1207  -10.7437   31.2857 C.3     1  UNL1        0.4207
     27 F          -6.0477  -10.6085   30.4215 F       1  UNL1       -0.1658
     28 F          -6.6567  -11.2445   32.4884 F       1  UNL1       -0.1658
     29 F          -7.6701   -9.4924   31.4994 F       1  UNL1       -0.1658
     30 N          -4.8823  -16.3346   20.9194 N.pl3   1  UNL1       -0.2814
     31 H          -4.7827  -15.4802   20.3269 H       1  UNL1        0.1551
     32 C          -4.1150  -17.4997   20.5692 C.ar    1  UNL1        0.0893
     33 C          -4.7097  -18.5703   19.8722 C.ar    1  UNL1        0.1543
     34 F          -6.0238  -18.5379   19.5355 F       1  UNL1       -0.2028
     35 C          -3.9579  -19.6994   19.5432 C.ar    1  UNL1        0.0314
     36 C          -2.6156  -19.7812   19.9116 C.ar    1  UNL1        0.0090
     37 C          -2.0125  -18.7366   20.6177 C.ar    1  UNL1        0.0420
     38 I           0.0311  -18.9434   21.1425 I       1  UNL1       -0.0416
     39 C          -2.7610  -17.5927   20.9547 C.ar    1  UNL1        0.0786
     40 CL         -1.9984  -16.2578   21.8188 Cl      1  UNL1       -0.0804
@<TRIPOS>BOND
     1     1     2    1
     2     2     3   ar
     3     3    30    1
     4    30    32    1
     5    32    33   ar
     6    33    34    1
     7    33    35   ar
     8    35    36   ar
     9    36    37   ar
    10    37    38    1
    11    37    39   ar
    12    39    40    1
    13     3     4   ar
    14     4     5   ar
    15     5     6   ar
    16     6     7   ar
    17     7    15    1
    18    15    16    2
    19    15    17   am
    20    17    19    1
    21    19    20   ar
    22    20    21   ar
    23    21    22   ar
    24    22    23    1
    25    22    24   ar
    26    24    26    1
    27    26    27    1
    28    26    28    1
    29    26    29    1
    30    24    25   ar
    31     7     8   ar
    32     8     9   ar
    33     9    10   ar
    34     9    11    1
    35    11    12    1
    36    12    13    1
    37    13    14    1
    38    10     2   ar
    39    39    32   ar
    40    10     5   ar
    41    25    19   ar
    42    14     8    1
    43    30    31    1
    44    17    18    1
@<TRIPOS>MOLECULE
*****
 40 44 0 0 0
SMALL
GASTEIGER

@<TRIPOS>ATOM
      1 C          -8.9693  -16.6417   23.9565 C.3     1  UNL1        0.1333
      2 N          -8.3679  -17.8509   23.3927 N.ar    1  UNL1       -0.2950
      3 C          -8.9574  -19.0534   23.1417 C.ar    1  UNL1        0.2019
      4 N          -8.1394  -19.9443   22.5256 N.ar    1  UNL1       -0.2134
      5 C          -6.9815  -19.2675   22.4244 C.ar    1  UNL1        0.1033
      6 C          -5.7893  -19.7210   21.8656 C.ar    1  UNL1        0.0284
      7 C          -4.6776  -18.8479   21.8527 C.ar    1  UNL1        0.0922
      8 C          -4.7947  -17.5601   22.4458 C.ar    1  UNL1        0.1782
      9 C          -6.0279  -17.1259   22.9767 C.ar    1  UNL1        0.1897
     10 C          -7.1065  -18.0143   22.9518 C.ar    1  UNL1        0.1173
     11 O          -6.1248  -15.8435   23.5249 O.3     1  UNL1       -0.4669
     12 C          -5.0947  -14.8753   23.3195 C.3     1  UNL1        0.2527
     13 C          -3.7186  -15.5472   23.3881 C.3     1  UNL1        0.2526
     14 O          -3.6910  -16.7037   22.5482 O.3     1  UNL1       -0.4682
     15 C          -3.4043  -19.3118   21.2626 C.2     1  UNL1        0.2526
     16 O          -3.4380  -20.0218   20.2210 O.2     1  UNL1       -0.2697
     17 N          -2.1444  -18.9583   21.8614 N.am    1  UNL1       -0.2803
     18 H          -2.1480  -18.4073   22.7485 H       1  UNL1        0.1552
     19 C          -0.8671  -19.3849   21.3589 C.ar    1  UNL1        0.0506
     20 C          -0.1349  -18.5961   20.4565 C.ar    1  UNL1        0.0170
     21 C           1.1162  -19.0205   20.0056 C.ar    1  UNL1        0.0309
     22 C           1.6566  -20.2269   20.4575 C.ar    1  UNL1        0.1441
     23 F           2.8774  -20.6137   20.0070 F       1  UNL1       -0.2042
     24 C           0.9484  -21.0217   21.3773 C.ar    1  UNL1        0.1000
     25 C          -0.3104  -20.5833   21.8311 C.ar    1  UNL1        0.0208
     26 C           1.5537  -22.3143   21.8709 C.3     1  UNL1        0.4207
     27 F           2.6194  -22.0896   22.7255 F       1  UNL1       -0.1658
     28 F           2.0032  -23.0532   20.7918 F       1  UNL1       -0.1658
     29 F           0.5952  -23.0444   22.5502 F       1  UNL1       -0.1658
     30 N         -10.3135  -19.3791   23.4766 N.pl3   1  UNL1       -0.2814
     31 H         -10.4678  -20.1750   24.1351 H       1  UNL1        0.1551
     32 C         -11.4464  -18.5769   23.1001 C.ar    1  UNL1        0.0893
     33 C         -12.5526  -18.4438   23.9630 C.ar    1  UNL1        0.1543
     34 F         -12.5854  -19.0866   25.1575 F       1  UNL1       -0.2028
     35 C         -13.6500  -17.6685   23.5850 C.ar    1  UNL1        0.0314
     36 C         -13.6648  -17.0288   22.3462 C.ar    1  UNL1        0.0090
     37 C         -12.5841  -17.1623   21.4699 C.ar    1  UNL1        0.0420
     38 I         -12.6892  -16.1603   19.6046 I       1  UNL1       -0.0416
     39 C         -11.4716  -17.9417   21.8407 C.ar    1  UNL1        0.0786
     40 CL        -10.0915  -18.0896   20.7527 Cl      1  UNL1       -0.0804
@<TRIPOS>BOND
     1     1     2    1
     2     2     3   ar
     3     3    30    1
     4    30    32    1
     5    32    33   ar
     6    33    34    1
     7    33    35   ar
     8    35    36   ar
     9    36    37   ar
    10    37    38    1
    11    37    39   ar
    12    39    40    1
    13     3     4   ar
    14     4     5   ar
    15     5     6   ar
    16     6     7   ar
    17     7    15    1
    18    15    16    2
    19    15    17   am
    20    17    19    1
    21    19    20   ar
    22    20    21   ar
    23    21    22   ar
    24    22    23    1
    25    22    24   ar
    26    24    26    1
    27    26    27    1
    28    26    28    1
    29    26    29    1
    30    24    25   ar
    31     7     8   ar
    32     8     9   ar
    33     9    10   ar
    34     9    11    1
    35    11    12    1
    36    12    13    1
    37    13    14    1
    38    10     2   ar
    39    39    32   ar
    40    10     5   ar
    41    25    19   ar
    42    14     8    1
    43    30    31    1
    44    17    18    1
@<TRIPOS>MOLECULE
*****
 40 44 0 0 0
SMALL
GASTEIGER

@<TRIPOS>ATOM
      1 C          -6.3723  -11.6967   29.2153 C.3     1  UNL1        0.1333
      2 N          -7.5377  -12.5768   29.1217 N.ar    1  UNL1       -0.2950
      3 C          -8.7232  -12.4882   29.7877 C.ar    1  UNL1        0.2019
      4 N          -9.6367  -13.4150   29.4020 N.ar    1  UNL1       -0.2134
      5 C          -8.9678  -14.1287   28.4788 C.ar    1  UNL1        0.1033
      6 C          -9.4419  -15.2195   27.7545 C.ar    1  UNL1        0.0284
      7 C          -8.5764  -15.8347   26.8214 C.ar    1  UNL1        0.0922
      8 C          -7.2444  -15.3547   26.6832 C.ar    1  UNL1        0.1782
      9 C          -6.8096  -14.2288   27.4143 C.ar    1  UNL1        0.1897
     10 C          -7.7041  -13.6395   28.3120 C.ar    1  UNL1        0.1173
     11 O          -5.5056  -13.7574   27.2363 O.3     1  UNL1       -0.4669
     12 C          -4.7000  -14.2137   26.1483 C.3     1  UNL1        0.2527
     13 C          -4.9235  -15.7129   25.9195 C.3     1  UNL1        0.2526
     14 O          -6.3224  -15.9986   25.8480 O.3     1  UNL1       -0.4682
     15 C          -9.0629  -16.9930   26.0426 C.2     1  UNL1        0.2526
     16 O          -9.1796  -18.1090   26.6182 O.2     1  UNL1       -0.2697
     17 N          -9.4025  -16.8533   24.6512 N.am    1  UNL1       -0.2803
     18 H          -9.2534  -15.9287   24.1892 H       1  UNL1        0.1552
     19 C          -9.8636  -17.9340   23.8233 C.ar    1  UNL1        0.0506
     20 C         -10.6082  -18.9987   24.3570 C.ar    1  UNL1        0.0170
     21 C         -11.0683  -20.0215   23.5259 C.ar    1  UNL1        0.0309
     22 C         -10.8036  -19.9889   22.1547 C.ar    1  UNL1        0.1441
     23 F         -11.2671  -20.9937   21.3683 F       1  UNL1       -0.2042
     24 C         -10.0773  -18.9207   21.5971 C.ar    1  UNL1        0.1000
     25 C          -9.6217  -17.8904   22.4418 C.ar    1  UNL1        0.0208
     26 C          -9.8149  -18.8898   20.1101 C.3     1  UNL1        0.4207
     27 F          -8.4643  -18.7766   19.8286 F       1  UNL1       -0.1658
     28 F         -10.4732  -17.8105   19.5494 F       1  UNL1       -0.1658
     29 F         -10.2856  -20.0553   19.5328 F       1  UNL1       -0.1658
     30 N          -9.0150  -11.5157   30.8009 N.pl3   1  UNL1       -0.2814
     31 H          -9.2475  -10.5477   30.4848 H       1  UNL1        0.1551
     32 C          -9.1725  -11.8336   32.1947 C.ar    1  UNL1        0.0893
     33 C          -8.2257  -11.3984   33.1435 C.ar    1  UNL1        0.1543
     34 F          -7.1328  -10.6902   32.7626 F       1  UNL1       -0.2028
     35 C          -8.3842  -11.7182   34.4929 C.ar    1  UNL1        0.0314
     36 C          -9.4747  -12.4800   34.9107 C.ar    1  UNL1        0.0090
     37 C         -10.4155  -12.9346   33.9823 C.ar    1  UNL1        0.0420
     38 I         -12.0409  -14.0905   34.7011 I       1  UNL1       -0.0416
     39 C         -10.2659  -12.6179   32.6186 C.ar    1  UNL1        0.0786
     40 CL        -11.4653  -13.1623   31.4459 Cl      1  UNL1       -0.0804
@<TRIPOS>BOND
     1     1     2    1
     2     2     3   ar
     3     3    30    1
     4    30    32    1
     5    32    33   ar
     6    33    34    1
     7    33    35   ar
     8    35    36   ar
     9    36    37   ar
    10    37    38    1
    11    37    39   ar
    12    39    40    1
    13     3     4   ar
    14     4     5   ar
    15     5     6   ar
    16     6     7   ar
    17     7    15    1
    18    15    16    2
    19    15    17   am
    20    17    19    1
    21    19    20   ar
    22    20    21   ar
    23    21    22   ar
    24    22    23    1
    25    22    24   ar
    26    24    26    1
    27    26    27    1
    28    26    28    1
    29    26    29    1
    30    24    25   ar
    31     7     8   ar
    32     8     9   ar
    33     9    10   ar
    34     9    11    1
    35    11    12    1
    36    12    13    1
    37    13    14    1
    38    10     2   ar
    39    39    32   ar
    40    10     5   ar
    41    25    19   ar
    42    14     8    1
    43    30    31    1
    44    17    18    1
@<TRIPOS>MOLECULE
*****
 40 44 0 0 0
SMALL
GASTEIGER

@<TRIPOS>ATOM
      1 C          -8.6500   -9.9878   31.4214 C.3     1  UNL1        0.1333
      2 N          -8.9543  -11.3234   30.9067 N.ar    1  UNL1       -0.2950
      3 C          -9.9918  -12.1432   31.2360 C.ar    1  UNL1        0.2019
      4 N         -10.0387  -13.2852   30.5039 N.ar    1  UNL1       -0.2134
      5 C          -8.9581  -13.1770   29.7104 C.ar    1  UNL1        0.1033
      6 C          -8.5249  -14.0896   28.7519 C.ar    1  UNL1        0.0284
      7 C          -7.3576  -13.7868   28.0142 C.ar    1  UNL1        0.0922
      8 C          -6.6411  -12.5918   28.3010 C.ar    1  UNL1        0.1782
      9 C          -7.1276  -11.6780   29.2600 C.ar    1  UNL1        0.1897
     10 C          -8.2956  -12.0080   29.9528 C.ar    1  UNL1        0.1173
     11 O          -6.4216  -10.4955   29.5001 O.3     1  UNL1       -0.4669
     12 C          -5.3822  -10.0667   28.6190 C.3     1  UNL1        0.2527
     13 C          -4.5598  -11.2717   28.1484 C.3     1  UNL1        0.2526
     14 O          -5.4250  -12.3035   27.6684 O.3     1  UNL1       -0.4682
     15 C          -6.8835  -14.7432   26.9918 C.2     1  UNL1        0.2526
     16 O          -7.3853  -15.8996   26.9594 O.2     1  UNL1       -0.2697
     17 N          -5.8687  -14.3639   26.0445 N.am    1  UNL1       -0.2803
     18 H          -5.4390  -13.4154   26.1231 H       1  UNL1        0.1552
     19 C          -5.3430  -15.2411   25.0344 C.ar    1  UNL1        0.0506
     20 C          -4.4886  -16.3065   25.3626 C.ar    1  UNL1        0.0170
     21 C          -4.0146  -17.1609   24.3657 C.ar    1  UNL1        0.0309
     22 C          -4.3958  -16.9719   23.0351 C.ar    1  UNL1        0.1441
     23 F          -3.9244  -17.8204   22.0861 F       1  UNL1       -0.2042
     24 C          -5.2674  -15.9233   22.6883 C.ar    1  UNL1        0.1000
     25 C          -5.7451  -15.0695   23.7010 C.ar    1  UNL1        0.0208
     26 C          -5.6853  -15.7429   21.2483 C.3     1  UNL1        0.4207
     27 F          -6.5547  -14.6766   21.0951 F       1  UNL1       -0.1658
     28 F          -6.3153  -16.8916   20.8051 F       1  UNL1       -0.1658
     29 F          -4.5673  -15.5112   20.4675 F       1  UNL1       -0.1658
     30 N         -10.9647  -11.8550   32.2497 N.pl3   1  UNL1       -0.2814
     31 H         -11.4014  -10.9061   32.2405 H       1  UNL1        0.1551
     32 C         -11.4913  -12.8385   33.1574 C.ar    1  UNL1        0.0893
     33 C         -10.7875  -13.1882   34.3272 C.ar    1  UNL1        0.1543
     34 F          -9.5874  -12.6233   34.6130 F       1  UNL1       -0.2028
     35 C         -11.3041  -14.1490   35.1980 C.ar    1  UNL1        0.0314
     36 C         -12.5150  -14.7781   34.9113 C.ar    1  UNL1        0.0090
     37 C         -13.2194  -14.4566   33.7477 C.ar    1  UNL1        0.0420
     38 I         -15.0499  -15.4630   33.3857 I       1  UNL1       -0.0416
     39 C         -12.7081  -13.4887   32.8622 C.ar    1  UNL1        0.0786
     40 CL        -13.6066  -13.0561   31.4077 Cl      1  UNL1       -0.0804
@<TRIPOS>BOND
     1     1     2    1
     2     2     3   ar
     3     3    30    1
     4    30    32    1
     5    32    33   ar
     6    33    34    1
     7    33    35   ar
     8    35    36   ar
     9    36    37   ar
    10    37    38    1
    11    37    39   ar
    12    39    40    1
    13     3     4   ar
    14     4     5   ar
    15     5     6   ar
    16     6     7   ar
    17     7    15    1
    18    15    16    2
    19    15    17   am
    20    17    19    1
    21    19    20   ar
    22    20    21   ar
    23    21    22   ar
    24    22    23    1
    25    22    24   ar
    26    24    26    1
    27    26    27    1
    28    26    28    1
    29    26    29    1
    30    24    25   ar
    31     7     8   ar
    32     8     9   ar
    33     9    10   ar
    34     9    11    1
    35    11    12    1
    36    12    13    1
    37    13    14    1
    38    10     2   ar
    39    39    32   ar
    40    10     5   ar
    41    25    19   ar
    42    14     8    1
    43    30    31    1
    44    17    18    1
@<TRIPOS>MOLECULE
*****
 40 44 0 0 0
SMALL
GASTEIGER

@<TRIPOS>ATOM
      1 C          -8.6371   -9.9753   31.4520 C.3     1  UNL1        0.1333
      2 N          -8.9256  -11.2988   30.8983 N.ar    1  UNL1       -0.2950
      3 C          -9.9636  -12.1321   31.1895 C.ar    1  UNL1        0.2019
      4 N          -9.9923  -13.2552   30.4278 N.ar    1  UNL1       -0.2134
      5 C          -8.8996  -13.1211   29.6552 C.ar    1  UNL1        0.1033
      6 C          -8.4457  -14.0065   28.6809 C.ar    1  UNL1        0.0284
      7 C          -7.2682  -13.6789   27.9704 C.ar    1  UNL1        0.0922
      8 C          -6.5632  -12.4879   28.2994 C.ar    1  UNL1        0.1782
      9 C          -7.0703  -11.6016   29.2733 C.ar    1  UNL1        0.1897
     10 C          -8.2476  -11.9553   29.9382 C.ar    1  UNL1        0.1173
     11 O          -6.3750  -10.4220   29.5552 O.3     1  UNL1       -0.4669
     12 C          -5.3237   -9.9654   28.7024 C.3     1  UNL1        0.2527
     13 C          -4.4871  -11.1537   28.2148 C.3     1  UNL1        0.2526
     14 O          -5.3386  -12.1772   27.6944 O.3     1  UNL1       -0.4682
     15 C          -6.7722  -14.6063   26.9318 C.2     1  UNL1        0.2526
     16 O          -6.0385  -15.5721   27.2769 O.2     1  UNL1       -0.2697
     17 N          -7.1214  -14.4160   25.5487 N.am    1  UNL1       -0.2803
     18 H          -7.6930  -13.5825   25.2861 H       1  UNL1        0.1552
     19 C          -6.6646  -15.2619   24.4801 C.ar    1  UNL1        0.0506
     20 C          -5.3551  -15.1679   23.9809 C.ar    1  UNL1        0.0170
     21 C          -4.9280  -16.0206   22.9616 C.ar    1  UNL1        0.0309
     22 C          -5.7945  -16.9832   22.4380 C.ar    1  UNL1        0.1441
     23 F          -5.3520  -17.8032   21.4508 F       1  UNL1       -0.2042
     24 C          -7.1035  -17.1075   22.9385 C.ar    1  UNL1        0.1000
     25 C          -7.5243  -16.2468   23.9705 C.ar    1  UNL1        0.0208
     26 C          -8.0227  -18.1651   22.3753 C.3     1  UNL1        0.4207
     27 F          -8.2935  -17.9501   21.0349 F       1  UNL1       -0.1658
     28 F          -9.2169  -18.1551   23.0727 F       1  UNL1       -0.1658
     29 F          -7.4328  -19.4092   22.5080 F       1  UNL1       -0.1658
     30 N         -10.9545  -11.8750   32.1942 N.pl3   1  UNL1       -0.2814
     31 H         -11.4246  -10.9424   32.1777 H       1  UNL1        0.1551
     32 C         -11.4532  -12.8734   33.1015 C.ar    1  UNL1        0.0893
     33 C         -10.7281  -13.2206   34.2589 C.ar    1  UNL1        0.1543
     34 F          -9.5331  -12.6391   34.5326 F       1  UNL1       -0.2028
     35 C         -11.2176  -14.1958   35.1293 C.ar    1  UNL1        0.0314
     36 C         -12.4223  -14.8417   34.8544 C.ar    1  UNL1        0.0090
     37 C         -13.1476  -14.5227   33.7030 C.ar    1  UNL1        0.0420
     38 I         -14.9670  -15.5549   33.3583 I       1  UNL1       -0.0416
     39 C         -12.6636  -13.5404   32.8180 C.ar    1  UNL1        0.0786
     40 CL        -13.5887  -13.1112   31.3791 Cl      1  UNL1       -0.0804
@<TRIPOS>BOND
     1     1     2    1
     2     2     3   ar
     3     3    30    1
     4    30    32    1
     5    32    33   ar
     6    33    34    1
     7    33    35   ar
     8    35    36   ar
     9    36    37   ar
    10    37    38    1
    11    37    39   ar
    12    39    40    1
    13     3     4   ar
    14     4     5   ar
    15     5     6   ar
    16     6     7   ar
    17     7    15    1
    18    15    16    2
    19    15    17   am
    20    17    19    1
    21    19    20   ar
    22    20    21   ar
    23    21    22   ar
    24    22    23    1
    25    22    24   ar
    26    24    26    1
    27    26    27    1
    28    26    28    1
    29    26    29    1
    30    24    25   ar
    31     7     8   ar
    32     8     9   ar
    33     9    10   ar
    34     9    11    1
    35    11    12    1
    36    12    13    1
    37    13    14    1
    38    10     2   ar
    39    39    32   ar
    40    10     5   ar
    41    25    19   ar
    42    14     8    1
    43    30    31    1
    44    17    18    1
@<TRIPOS>MOLECULE
*****
 40 44 0 0 0
SMALL
GASTEIGER

@<TRIPOS>ATOM
      1 C          -8.3444   -9.9826   31.6942 C.3     1  UNL1        0.1333
      2 N          -8.7322  -11.2550   31.0841 N.ar    1  UNL1       -0.2950
      3 C          -9.8041  -12.0439   31.3761 C.ar    1  UNL1        0.2019
      4 N          -9.9296  -13.1193   30.5576 N.ar    1  UNL1       -0.2134
      5 C          -8.8637  -13.0036   29.7455 C.ar    1  UNL1        0.1033
      6 C          -8.5028  -13.8573   28.7061 C.ar    1  UNL1        0.0284
      7 C          -7.3387  -13.5570   27.9626 C.ar    1  UNL1        0.0922
      8 C          -6.5524  -12.4275   28.3231 C.ar    1  UNL1        0.1782
      9 C          -6.9663  -11.5700   29.3645 C.ar    1  UNL1        0.1897
     10 C          -8.1338  -11.8938   30.0611 C.ar    1  UNL1        0.1173
     11 O          -6.1924  -10.4487   29.6777 O.3     1  UNL1       -0.4669
     12 C          -5.1524  -10.0048   28.8047 C.3     1  UNL1        0.2527
     13 C          -4.4073  -11.2089   28.2177 C.3     1  UNL1        0.2526
     14 O          -5.3378  -12.1525   27.6817 O.3     1  UNL1       -0.4682
     15 C          -6.9408  -14.4513   26.8550 C.2     1  UNL1        0.2526
     16 O          -5.8276  -15.0404   26.9169 O.2     1  UNL1       -0.2697
     17 N          -7.8082  -14.6520   25.7243 N.am    1  UNL1       -0.2803
     18 H          -8.7036  -14.1167   25.6781 H       1  UNL1        0.1552
     19 C          -7.4852  -15.4892   24.6014 C.ar    1  UNL1        0.0506
     20 C          -8.3255  -16.5442   24.2094 C.ar    1  UNL1        0.0170
     21 C          -8.0029  -17.3245   23.0978 C.ar    1  UNL1        0.0309
     22 C          -6.8488  -17.0554   22.3581 C.ar    1  UNL1        0.1441
     23 F          -6.5613  -17.8266   21.2786 F       1  UNL1       -0.2042
     24 C          -6.0047  -15.9903   22.7220 C.ar    1  UNL1        0.1000
     25 C          -6.3406  -15.2047   23.8413 C.ar    1  UNL1        0.0208
     26 C          -4.7704  -15.6999   21.9016 C.3     1  UNL1        0.4207
     27 F          -5.0847  -15.4092   20.5852 F       1  UNL1       -0.1658
     28 F          -3.9352  -16.8020   21.9217 F       1  UNL1       -0.1658
     29 F          -4.1009  -14.6162   22.4408 F       1  UNL1       -0.1658
     30 N         -10.7360  -11.7882   32.4361 N.pl3   1  UNL1       -0.2814
     31 H         -11.1360  -10.8256   32.5023 H       1  UNL1        0.1551
     32 C         -11.2740  -12.8100   33.2936 C.ar    1  UNL1        0.0893
     33 C         -10.5945  -13.1969   34.4660 C.ar    1  UNL1        0.1543
     34 F          -9.4072  -12.6323   34.8014 F       1  UNL1       -0.2028
     35 C         -11.1219  -14.1945   35.2877 C.ar    1  UNL1        0.0314
     36 C         -12.3193  -14.8233   34.9488 C.ar    1  UNL1        0.0090
     37 C         -12.9993  -14.4647   33.7815 C.ar    1  UNL1        0.0420
     38 I         -14.8106  -15.4734   33.3385 I       1  UNL1       -0.0416
     39 C         -12.4769  -13.4596   32.9453 C.ar    1  UNL1        0.0786
     40 CL        -13.3453  -12.9809   31.4868 Cl      1  UNL1       -0.0804
@<TRIPOS>BOND
     1     1     2    1
     2     2     3   ar
     3     3    30    1
     4    30    32    1
     5    32    33   ar
     6    33    34    1
     7    33    35   ar
     8    35    36   ar
     9    36    37   ar
    10    37    38    1
    11    37    39   ar
    12    39    40    1
    13     3     4   ar
    14     4     5   ar
    15     5     6   ar
    16     6     7   ar
    17     7    15    1
    18    15    16    2
    19    15    17   am
    20    17    19    1
    21    19    20   ar
    22    20    21   ar
    23    21    22   ar
    24    22    23    1
    25    22    24   ar
    26    24    26    1
    27    26    27    1
    28    26    28    1
    29    26    29    1
    30    24    25   ar
    31     7     8   ar
    32     8     9   ar
    33     9    10   ar
    34     9    11    1
    35    11    12    1
    36    12    13    1
    37    13    14    1
    38    10     2   ar
    39    39    32   ar
    40    10     5   ar
    41    25    19   ar
    42    14     8    1
    43    30    31    1
    44    17    18    1
