@<TRIPOS>MOLECULE
*****
 36 39 0 0 0
SMALL
GASTEIGER

@<TRIPOS>ATOM
      1 C          -8.8491  -11.0483   32.1624 C.2     1  UNL1        0.2669
      2 O          -7.6660  -11.3412   32.4809 O.2     1  UNL1       -0.2682
      3 N          -9.1592   -9.7157   31.6853 N.am    1  UNL1       -0.2685
      4 C         -10.3379  -12.5432   33.5636 C.ar    1  UNL1       -0.0000
      5 C          -9.8763  -12.0934   32.2994 C.ar    1  UNL1        0.1307
      6 N         -10.3276  -12.6776   31.1600 N.ar    1  UNL1       -0.2396
      7 C         -11.2587  -13.6593   31.1624 C.ar    1  UNL1        0.0989
      8 C         -11.7792  -14.1290   32.3686 C.ar    1  UNL1        0.0189
      9 C         -12.7459  -15.1465   32.3664 C.ar    1  UNL1        0.0015
     10 C         -13.2482  -15.6398   33.5694 C.ar    1  UNL1        0.0000
     11 C         -12.7864  -15.1282   34.7807 C.ar    1  UNL1       -0.0000
     12 C         -11.8253  -14.1140   34.7987 C.ar    1  UNL1       -0.0002
     13 C         -11.3096  -13.5849   33.5924 C.ar    1  UNL1       -0.0009
     14 C          -8.8583  -13.0061   35.5391 C.3     1  UNL1        0.0051
     15 C          -9.7385  -11.9732   34.8422 C.3     1  UNL1        0.0280
     16 C         -10.2690   -9.4337   30.7433 C.3     1  UNL1        0.1007
     17 C         -10.1069  -10.2588   29.4574 C.3     1  UNL1        0.0265
     18 C         -10.4814   -7.9354   30.5290 C.ar    1  UNL1        0.0234
     19 C          -9.6752   -7.1687   29.6565 C.ar    1  UNL1        0.0019
     20 C          -9.8979   -5.7977   29.5017 C.ar    1  UNL1        0.0295
     21 C         -10.9266   -5.1700   30.2040 C.ar    1  UNL1        0.1424
     22 F         -11.1369   -3.8391   30.0538 F       1  UNL1       -0.2041
     23 C         -11.7404   -5.9136   31.0591 C.ar    1  UNL1        0.0590
     24 C         -11.5260   -7.2857   31.2202 C.ar    1  UNL1        0.1399
     25 F         -12.3401   -7.9790   32.0538 F       1  UNL1       -0.2044
     26 C          -8.3532   -8.5855   32.1794 C.3     1  UNL1        0.1207
     27 C          -7.1037   -8.4084   31.3551 C.ar    1  UNL1       -0.0021
     28 C          -6.1180   -7.4910   31.7492 C.ar    1  UNL1       -0.0026
     29 C          -4.9449   -7.3546   31.0051 C.ar    1  UNL1       -0.0001
     30 C          -4.7430   -8.1304   29.8617 C.ar    1  UNL1        0.0064
     31 C          -5.7204   -9.0511   29.4454 C.ar    1  UNL1        0.0752
     32 C          -6.9012   -9.1806   30.1980 C.ar    1  UNL1        0.0038
     33 C          -5.5121   -9.8761   28.2349 C.2     1  UNL1        0.3380
     34 O          -4.9809  -11.0163   28.3227 O.2     1  UNL1       -0.2451
     35 O          -5.9024   -9.4009   26.9854 O.3     1  UNL1       -0.4771
     36 H          -5.7650   -9.9581   26.1505 H       1  UNL1        0.2954
@<TRIPOS>BOND
     1    14    15    1
     2    15     4    1
     3     4     5   ar
     4     5     1    1
     5     1     2    2
     6     1     3   am
     7     3    26    1
     8    26    27    1
     9    27    28   ar
    10    28    29   ar
    11    29    30   ar
    12    30    31   ar
    13    31    33    1
    14    33    34    2
    15    33    35    1
    16    31    32   ar
    17     3    16    1
    18    16    17    1
    19    16    18    1
    20    18    19   ar
    21    19    20   ar
    22    20    21   ar
    23    21    22    1
    24    21    23   ar
    25    23    24   ar
    26    24    25    1
    27     5     6   ar
    28     6     7   ar
    29     7     8   ar
    30     8     9   ar
    31     9    10   ar
    32    10    11   ar
    33    11    12   ar
    34    12    13   ar
    35    13     4   ar
    36    32    27   ar
    37    24    18   ar
    38    13     8   ar
    39    35    36    1
@<TRIPOS>MOLECULE
*****
 36 39 0 0 0
SMALL
GASTEIGER

@<TRIPOS>ATOM
      1 C          -9.7281   -9.7763   32.2771 C.2     1  UNL1        0.2669
      2 O          -9.5113   -9.6542   33.5120 O.2     1  UNL1       -0.2682
      3 N         -11.0753   -9.6321   31.7632 N.am    1  UNL1       -0.2685
      4 C          -7.5380   -9.1347   31.1788 C.ar    1  UNL1       -0.0000
      5 C          -8.5807  -10.0705   31.4038 C.ar    1  UNL1        0.1307
      6 N          -8.5839  -11.2601   30.7494 N.ar    1  UNL1       -0.2396
      7 C          -7.5915  -11.6335   29.9089 C.ar    1  UNL1        0.0989
      8 C          -6.5190  -10.7750   29.6652 C.ar    1  UNL1        0.0189
      9 C          -5.4911  -11.1669   28.7937 C.ar    1  UNL1        0.0015
     10 C          -4.4320  -10.3019   28.5238 C.ar    1  UNL1        0.0000
     11 C          -4.3936   -9.0401   29.1142 C.ar    1  UNL1       -0.0000
     12 C          -5.4091   -8.6365   29.9851 C.ar    1  UNL1       -0.0002
     13 C          -6.4877   -9.5002   30.2880 C.ar    1  UNL1       -0.0009
     14 C          -6.6771   -7.6691   33.0272 C.3     1  UNL1        0.0051
     15 C          -7.6014   -7.7533   31.8165 C.3     1  UNL1        0.0280
     16 C         -11.3688   -9.1457   30.3936 C.3     1  UNL1        0.1007
     17 C         -10.8417  -10.1376   29.3452 C.3     1  UNL1        0.0265
     18 C         -10.9351   -7.6947   30.1880 C.ar    1  UNL1        0.0234
     19 C          -9.8628   -7.3327   29.3405 C.ar    1  UNL1        0.0019
     20 C          -9.4929   -5.9931   29.1930 C.ar    1  UNL1        0.0295
     21 C         -10.1848   -4.9943   29.8778 C.ar    1  UNL1        0.1424
     22 F          -9.8202   -3.6963   29.7349 F       1  UNL1       -0.2041
     23 C         -11.2540   -5.3321   30.7080 C.ar    1  UNL1        0.0590
     24 C         -11.6322   -6.6693   30.8615 C.ar    1  UNL1        0.1399
     25 F         -12.6803   -6.9611   31.6706 F       1  UNL1       -0.2044
     26 C         -12.2043  -10.0117   32.6307 C.3     1  UNL1        0.1207
     27 C         -12.4435  -11.4995   32.5904 C.ar    1  UNL1       -0.0021
     28 C         -13.0476  -12.0907   31.4706 C.ar    1  UNL1       -0.0026
     29 C         -13.2349  -13.4730   31.4191 C.ar    1  UNL1       -0.0001
     30 C         -12.8228  -14.2788   32.4824 C.ar    1  UNL1        0.0064
     31 C         -12.2212  -13.7063   33.6168 C.ar    1  UNL1        0.0752
     32 C         -12.0388  -12.3128   33.6632 C.ar    1  UNL1        0.0038
     33 C         -11.7822  -14.5550   34.7466 C.2     1  UNL1        0.3380
     34 O         -12.5388  -15.4557   35.2006 O.2     1  UNL1       -0.2451
     35 O         -10.5266  -14.3676   35.3192 O.3     1  UNL1       -0.4771
     36 H         -10.2161  -14.9437   36.0925 H       1  UNL1        0.2954
@<TRIPOS>BOND
     1    14    15    1
     2    15     4    1
     3     4     5   ar
     4     5     1    1
     5     1     2    2
     6     1     3   am
     7     3    26    1
     8    26    27    1
     9    27    28   ar
    10    28    29   ar
    11    29    30   ar
    12    30    31   ar
    13    31    33    1
    14    33    34    2
    15    33    35    1
    16    31    32   ar
    17     3    16    1
    18    16    17    1
    19    16    18    1
    20    18    19   ar
    21    19    20   ar
    22    20    21   ar
    23    21    22    1
    24    21    23   ar
    25    23    24   ar
    26    24    25    1
    27     5     6   ar
    28     6     7   ar
    29     7     8   ar
    30     8     9   ar
    31     9    10   ar
    32    10    11   ar
    33    11    12   ar
    34    12    13   ar
    35    13     4   ar
    36    32    27   ar
    37    24    18   ar
    38    13     8   ar
    39    35    36    1
@<TRIPOS>MOLECULE
*****
 36 39 0 0 0
SMALL
GASTEIGER

@<TRIPOS>ATOM
      1 C         -11.1846   -9.5252   31.7388 C.2     1  UNL1        0.2669
      2 O         -11.3799   -8.5814   32.5500 O.2     1  UNL1       -0.2682
      3 N         -10.4465   -9.2841   30.5154 N.am    1  UNL1       -0.2685
      4 C         -11.2078  -11.6379   33.1355 C.ar    1  UNL1       -0.0000
      5 C         -11.7319  -10.8482   32.0793 C.ar    1  UNL1        0.1307
      6 N         -12.7264  -11.3332   31.2925 N.ar    1  UNL1       -0.2396
      7 C         -13.2963  -12.5429   31.4987 C.ar    1  UNL1        0.0989
      8 C         -12.8512  -13.3594   32.5389 C.ar    1  UNL1        0.0189
      9 C         -13.4459  -14.6129   32.7500 C.ar    1  UNL1        0.0015
     10 C         -12.9860  -15.4451   33.7693 C.ar    1  UNL1        0.0000
     11 C         -11.9277  -15.0373   34.5791 C.ar    1  UNL1       -0.0000
     12 C         -11.3265  -13.7914   34.3819 C.ar    1  UNL1       -0.0002
     13 C         -11.7833  -12.9210   33.3645 C.ar    1  UNL1       -0.0009
     14 C          -9.2488  -12.3125   34.5544 C.3     1  UNL1        0.0051
     15 C         -10.0102  -11.1441   33.9360 C.3     1  UNL1        0.0280
     16 C          -9.6462  -10.3313   29.8361 C.3     1  UNL1        0.1007
     17 C         -10.4386  -11.6450   29.7517 C.3     1  UNL1        0.0265
     18 C          -8.2409  -10.4593   30.4231 C.ar    1  UNL1        0.0234
     19 C          -7.9713  -11.1923   31.6018 C.ar    1  UNL1        0.0019
     20 C          -6.6716  -11.2712   32.1094 C.ar    1  UNL1        0.0295
     21 C          -5.6212  -10.6308   31.4523 C.ar    1  UNL1        0.1424
     22 F          -4.3625  -10.7066   31.9503 F       1  UNL1       -0.2041
     23 C          -5.8668   -9.9141   30.2807 C.ar    1  UNL1        0.0590
     24 C          -7.1634   -9.8299   29.7645 C.ar    1  UNL1        0.1399
     25 F          -7.3649   -9.1311   28.6203 F       1  UNL1       -0.2044
     26 C         -10.5161   -7.9457   29.9031 C.3     1  UNL1        0.1207
     27 C          -9.3466   -7.0938   30.3258 C.ar    1  UNL1       -0.0021
     28 C          -9.1019   -5.8631   29.6982 C.ar    1  UNL1       -0.0026
     29 C          -8.0406   -5.0582   30.1156 C.ar    1  UNL1       -0.0001
     30 C          -7.2131   -5.4720   31.1615 C.ar    1  UNL1        0.0064
     31 C          -7.4364   -6.7045   31.7999 C.ar    1  UNL1        0.0752
     32 C          -8.5055   -7.5115   31.3719 C.ar    1  UNL1        0.0038
     33 C          -6.5632   -7.1482   32.9090 C.2     1  UNL1        0.3380
     34 O          -5.3252   -6.9103   32.8816 O.2     1  UNL1       -0.2451
     35 O          -7.1013   -7.8328   33.9958 O.3     1  UNL1       -0.4771
     36 H          -6.5123   -8.1403   34.7606 H       1  UNL1        0.2954
@<TRIPOS>BOND
     1    14    15    1
     2    15     4    1
     3     4     5   ar
     4     5     1    1
     5     1     2    2
     6     1     3   am
     7     3    26    1
     8    26    27    1
     9    27    28   ar
    10    28    29   ar
    11    29    30   ar
    12    30    31   ar
    13    31    33    1
    14    33    34    2
    15    33    35    1
    16    31    32   ar
    17     3    16    1
    18    16    17    1
    19    16    18    1
    20    18    19   ar
    21    19    20   ar
    22    20    21   ar
    23    21    22    1
    24    21    23   ar
    25    23    24   ar
    26    24    25    1
    27     5     6   ar
    28     6     7   ar
    29     7     8   ar
    30     8     9   ar
    31     9    10   ar
    32    10    11   ar
    33    11    12   ar
    34    12    13   ar
    35    13     4   ar
    36    32    27   ar
    37    24    18   ar
    38    13     8   ar
    39    35    36    1
@<TRIPOS>MOLECULE
*****
 36 39 0 0 0
SMALL
GASTEIGER

@<TRIPOS>ATOM
      1 C          -8.9522  -11.1548   32.3560 C.2     1  UNL1        0.2669
      2 O          -8.4712  -12.2642   32.7089 O.2     1  UNL1       -0.2682
      3 N         -10.3607  -11.0490   32.0323 N.am    1  UNL1       -0.2685
      4 C          -7.3257   -9.6721   31.1027 C.ar    1  UNL1       -0.0000
      5 C          -8.0400  -10.0021   32.2836 C.ar    1  UNL1        0.1307
      6 N          -7.8421   -9.2908   33.4229 N.ar    1  UNL1       -0.2396
      7 C          -7.0151   -8.2215   33.4815 C.ar    1  UNL1        0.0989
      8 C          -6.3045   -7.8219   32.3492 C.ar    1  UNL1        0.0189
      9 C          -5.4487   -6.7114   32.4141 C.ar    1  UNL1        0.0015
     10 C          -4.7142   -6.3252   31.2942 C.ar    1  UNL1        0.0000
     11 C          -4.8221   -7.0458   30.1063 C.ar    1  UNL1       -0.0000
     12 C          -5.6711   -8.1528   30.0261 C.ar    1  UNL1       -0.0002
     13 C          -6.4391   -8.5574   31.1430 C.ar    1  UNL1       -0.0009
     14 C          -6.2809  -11.5150   29.7543 C.3     1  UNL1        0.0051
     15 C          -7.4548  -10.5468   29.8629 C.3     1  UNL1        0.0280
     16 C         -11.1390   -9.8002   32.2145 C.3     1  UNL1        0.1007
     17 C         -12.6460  -10.0873   32.1288 C.3     1  UNL1        0.0265
     18 C         -10.6426   -8.6706   31.3127 C.ar    1  UNL1        0.0234
     19 C         -10.2286   -7.4171   31.8194 C.ar    1  UNL1        0.0019
     20 C          -9.7941   -6.4083   30.9553 C.ar    1  UNL1        0.0295
     21 C          -9.7575   -6.6305   29.5788 C.ar    1  UNL1        0.1424
     22 F          -9.3390   -5.6479   28.7438 F       1  UNL1       -0.2041
     23 C         -10.1497   -7.8659   29.0625 C.ar    1  UNL1        0.0590
     24 C         -10.5853   -8.8816   29.9187 C.ar    1  UNL1        0.1399
     25 F         -10.9523  -10.0721   29.3836 F       1  UNL1       -0.2044
     26 C         -11.0446  -12.2272   31.4709 C.3     1  UNL1        0.1207
     27 C         -11.4138  -13.2082   32.5543 C.ar    1  UNL1       -0.0021
     28 C         -10.8762  -13.0766   33.8435 C.ar    1  UNL1       -0.0026
     29 C         -11.2476  -13.9636   34.8554 C.ar    1  UNL1       -0.0001
     30 C         -12.1572  -14.9898   34.5922 C.ar    1  UNL1        0.0064
     31 C         -12.7030  -15.1437   33.3058 C.ar    1  UNL1        0.0752
     32 C         -12.3218  -14.2484   32.2906 C.ar    1  UNL1        0.0038
     33 C         -13.6676  -16.2290   33.0210 C.2     1  UNL1        0.3380
     34 O         -13.3021  -17.2601   32.3940 O.2     1  UNL1       -0.2451
     35 O         -14.9900  -16.1223   33.4445 O.3     1  UNL1       -0.4771
     36 H         -15.6581  -16.8600   33.2552 H       1  UNL1        0.2954
@<TRIPOS>BOND
     1    14    15    1
     2    15     4    1
     3     4     5   ar
     4     5     1    1
     5     1     2    2
     6     1     3   am
     7     3    26    1
     8    26    27    1
     9    27    28   ar
    10    28    29   ar
    11    29    30   ar
    12    30    31   ar
    13    31    33    1
    14    33    34    2
    15    33    35    1
    16    31    32   ar
    17     3    16    1
    18    16    17    1
    19    16    18    1
    20    18    19   ar
    21    19    20   ar
    22    20    21   ar
    23    21    22    1
    24    21    23   ar
    25    23    24   ar
    26    24    25    1
    27     5     6   ar
    28     6     7   ar
    29     7     8   ar
    30     8     9   ar
    31     9    10   ar
    32    10    11   ar
    33    11    12   ar
    34    12    13   ar
    35    13     4   ar
    36    32    27   ar
    37    24    18   ar
    38    13     8   ar
    39    35    36    1
@<TRIPOS>MOLECULE
*****
 36 39 0 0 0
SMALL
GASTEIGER

@<TRIPOS>ATOM
      1 C          -9.6274   -8.8628   29.5471 C.2     1  UNL1        0.2669
      2 O          -9.8867   -8.9943   28.3214 O.2     1  UNL1       -0.2682
      3 N          -8.5634   -7.9739   29.9684 N.am    1  UNL1       -0.2685
      4 C         -10.0960  -10.9663   30.8777 C.ar    1  UNL1       -0.0000
      5 C         -10.4303   -9.6382   30.5063 C.ar    1  UNL1        0.1307
      6 N         -11.5635   -9.0608   30.9815 N.ar    1  UNL1       -0.2396
      7 C         -12.3885   -9.6825   31.8553 C.ar    1  UNL1        0.0989
      8 C         -12.1043  -10.9784   32.2872 C.ar    1  UNL1        0.0189
      9 C         -12.9620  -11.6191   33.1946 C.ar    1  UNL1        0.0015
     10 C         -12.6988  -12.9243   33.6072 C.ar    1  UNL1        0.0000
     11 C         -11.5848  -13.6009   33.1139 C.ar    1  UNL1       -0.0000
     12 C         -10.7209  -12.9755   32.2111 C.ar    1  UNL1       -0.0002
     13 C         -10.9563  -11.6465   31.7873 C.ar    1  UNL1       -0.0009
     14 C          -9.3370  -12.7524   29.2840 C.3     1  UNL1        0.0051
     15 C          -8.8934  -11.6555   30.2470 C.3     1  UNL1        0.0280
     16 C          -8.5646   -7.2772   31.2772 C.3     1  UNL1        0.1007
     17 C          -9.3471   -5.9582   31.1846 C.3     1  UNL1        0.0265
     18 C          -7.1617   -7.1576   31.8719 C.ar    1  UNL1        0.0234
     19 C          -6.2048   -6.2361   31.3877 C.ar    1  UNL1        0.0019
     20 C          -4.9290   -6.1709   31.9543 C.ar    1  UNL1        0.0295
     21 C          -4.5869   -7.0128   33.0123 C.ar    1  UNL1        0.1424
     22 F          -3.3468   -6.9490   33.5566 F       1  UNL1       -0.2041
     23 C          -5.5229   -7.9190   33.5116 C.ar    1  UNL1        0.0590
     24 C          -6.8021   -7.9913   32.9520 C.ar    1  UNL1        0.1399
     25 F          -7.6891   -8.8784   33.4664 F       1  UNL1       -0.2044
     26 C          -7.4146   -7.7743   29.0675 C.3     1  UNL1        0.1207
     27 C          -6.4451   -8.9248   29.1609 C.ar    1  UNL1       -0.0021
     28 C          -5.7168   -9.3320   28.0329 C.ar    1  UNL1       -0.0026
     29 C          -4.7923  -10.3734   28.1297 C.ar    1  UNL1       -0.0001
     30 C          -4.5851  -11.0189   29.3505 C.ar    1  UNL1        0.0064
     31 C          -5.3088  -10.6311   30.4917 C.ar    1  UNL1        0.0752
     32 C          -6.2409   -9.5834   30.3859 C.ar    1  UNL1        0.0038
     33 C          -5.0935  -11.3110   31.7881 C.2     1  UNL1        0.3380
     34 O          -3.9913  -11.8686   32.0415 O.2     1  UNL1       -0.2451
     35 O          -6.1071  -11.3404   32.7425 O.3     1  UNL1       -0.4771
     36 H          -5.9696  -11.8026   33.6336 H       1  UNL1        0.2954
@<TRIPOS>BOND
     1    14    15    1
     2    15     4    1
     3     4     5   ar
     4     5     1    1
     5     1     2    2
     6     1     3   am
     7     3    26    1
     8    26    27    1
     9    27    28   ar
    10    28    29   ar
    11    29    30   ar
    12    30    31   ar
    13    31    33    1
    14    33    34    2
    15    33    35    1
    16    31    32   ar
    17     3    16    1
    18    16    17    1
    19    16    18    1
    20    18    19   ar
    21    19    20   ar
    22    20    21   ar
    23    21    22    1
    24    21    23   ar
    25    23    24   ar
    26    24    25    1
    27     5     6   ar
    28     6     7   ar
    29     7     8   ar
    30     8     9   ar
    31     9    10   ar
    32    10    11   ar
    33    11    12   ar
    34    12    13   ar
    35    13     4   ar
    36    32    27   ar
    37    24    18   ar
    38    13     8   ar
    39    35    36    1
@<TRIPOS>MOLECULE
*****
 36 39 0 0 0
SMALL
GASTEIGER

@<TRIPOS>ATOM
      1 C         -11.2777  -10.2391   30.9443 C.2     1  UNL1        0.2669
      2 O         -11.7027   -9.1165   31.3264 O.2     1  UNL1       -0.2682
      3 N         -10.3014  -10.3158   29.8762 N.am    1  UNL1       -0.2685
      4 C         -11.3409  -11.8733   32.8782 C.ar    1  UNL1       -0.0000
      5 C         -11.8094  -11.4384   31.6113 C.ar    1  UNL1        0.1307
      6 N         -12.7290  -12.1726   30.9342 N.ar    1  UNL1       -0.2396
      7 C         -13.2767  -13.3021   31.4392 C.ar    1  UNL1        0.0989
      8 C         -12.8851  -13.7711   32.6935 C.ar    1  UNL1        0.0189
      9 C         -13.4567  -14.9424   33.2140 C.ar    1  UNL1        0.0015
     10 C         -13.0483  -15.4315   34.4538 C.ar    1  UNL1        0.0000
     11 C         -12.0645  -14.7617   35.1787 C.ar    1  UNL1       -0.0000
     12 C         -11.4872  -13.5935   34.6740 C.ar    1  UNL1       -0.0002
     13 C         -11.8937  -13.0671   33.4254 C.ar    1  UNL1       -0.0009
     14 C          -9.1779  -12.0809   34.1368 C.3     1  UNL1        0.0051
     15 C         -10.2201  -11.1168   33.5784 C.3     1  UNL1        0.0280
     16 C          -9.3109  -11.4135   29.7656 C.3     1  UNL1        0.1007
     17 C          -9.9457  -12.7542   30.1660 C.3     1  UNL1        0.0265
     18 C          -7.9968  -11.0824   30.4723 C.ar    1  UNL1        0.0234
     19 C          -7.9326  -10.2398   31.6059 C.ar    1  UNL1        0.0019
     20 C          -6.7062   -9.9543   32.2121 C.ar    1  UNL1        0.0295
     21 C          -5.5284  -10.5053   31.7075 C.ar    1  UNL1        0.1424
     22 F          -4.3404  -10.2227   32.2962 F       1  UNL1       -0.2041
     23 C          -5.5747  -11.3496   30.5977 C.ar    1  UNL1        0.0590
     24 C          -6.7968  -11.6418   29.9847 C.ar    1  UNL1        0.1399
     25 F          -6.8058  -12.4717   28.9125 F       1  UNL1       -0.2044
     26 C         -10.3106   -9.2708   28.8375 C.3     1  UNL1        0.1207
     27 C          -9.7225   -7.9837   29.3569 C.ar    1  UNL1       -0.0021
     28 C          -8.3415   -7.8732   29.5780 C.ar    1  UNL1       -0.0026
     29 C          -7.7936   -6.6692   30.0238 C.ar    1  UNL1       -0.0001
     30 C          -8.6163   -5.5646   30.2539 C.ar    1  UNL1        0.0064
     31 C         -10.0036   -5.6554   30.0449 C.ar    1  UNL1        0.0752
     32 C         -10.5488   -6.8725   29.5989 C.ar    1  UNL1        0.0038
     33 C         -10.8804   -4.4883   30.2866 C.2     1  UNL1        0.3380
     34 O         -11.5662   -4.4123   31.3420 O.2     1  UNL1       -0.2451
     35 O         -10.9557   -3.4605   29.3500 O.3     1  UNL1       -0.4771
     36 H         -11.5523   -2.6567   29.5062 H       1  UNL1        0.2954
@<TRIPOS>BOND
     1    14    15    1
     2    15     4    1
     3     4     5   ar
     4     5     1    1
     5     1     2    2
     6     1     3   am
     7     3    26    1
     8    26    27    1
     9    27    28   ar
    10    28    29   ar
    11    29    30   ar
    12    30    31   ar
    13    31    33    1
    14    33    34    2
    15    33    35    1
    16    31    32   ar
    17     3    16    1
    18    16    17    1
    19    16    18    1
    20    18    19   ar
    21    19    20   ar
    22    20    21   ar
    23    21    22    1
    24    21    23   ar
    25    23    24   ar
    26    24    25    1
    27     5     6   ar
    28     6     7   ar
    29     7     8   ar
    30     8     9   ar
    31     9    10   ar
    32    10    11   ar
    33    11    12   ar
    34    12    13   ar
    35    13     4   ar
    36    32    27   ar
    37    24    18   ar
    38    13     8   ar
    39    35    36    1
@<TRIPOS>MOLECULE
*****
 36 39 0 0 0
SMALL
GASTEIGER

@<TRIPOS>ATOM
      1 C          -9.9759   -9.7220   31.9395 C.2     1  UNL1        0.2669
      2 O         -10.1431   -8.6214   32.5290 O.2     1  UNL1       -0.2682
      3 N          -9.4529   -9.7447   30.5883 N.am    1  UNL1       -0.2685
      4 C         -11.6109  -11.5573   32.5503 C.ar    1  UNL1       -0.0000
      5 C         -10.3329  -10.9515   32.6653 C.ar    1  UNL1        0.1307
      6 N          -9.4101  -11.4607   33.5212 N.ar    1  UNL1       -0.2396
      7 C          -9.6312  -12.5766   34.2536 C.ar    1  UNL1        0.0989
      8 C         -10.8548  -13.2414   34.1665 C.ar    1  UNL1        0.0189
      9 C         -11.0795  -14.3993   34.9271 C.ar    1  UNL1        0.0015
     10 C         -12.3101  -15.0511   34.8661 C.ar    1  UNL1        0.0000
     11 C         -13.3255  -14.5503   34.0536 C.ar    1  UNL1       -0.0000
     12 C         -13.1162  -13.3993   33.2896 C.ar    1  UNL1       -0.0002
     13 C         -11.8720  -12.7267   33.3212 C.ar    1  UNL1       -0.0009
     14 C         -13.2899  -11.9285   30.7202 C.3     1  UNL1        0.0051
     15 C         -12.6859  -10.9131   31.6854 C.3     1  UNL1        0.0280
     16 C          -8.6606  -10.8758   30.0486 C.3     1  UNL1        0.1007
     17 C          -9.4967  -12.1648   30.0426 C.3     1  UNL1        0.0265
     18 C          -7.2910  -10.9954   30.7164 C.ar    1  UNL1        0.0234
     19 C          -7.1270  -11.0135   32.1207 C.ar    1  UNL1        0.0019
     20 C          -5.8533  -11.1113   32.6875 C.ar    1  UNL1        0.0295
     21 C          -4.7263  -11.1994   31.8705 C.ar    1  UNL1        0.1424
     22 F          -3.4922  -11.2903   32.4244 F       1  UNL1       -0.2041
     23 C          -4.8705  -11.1965   30.4828 C.ar    1  UNL1        0.0590
     24 C          -6.1405  -11.0997   29.9063 C.ar    1  UNL1        0.1399
     25 F          -6.2445  -11.1069   28.5544 F       1  UNL1       -0.2044
     26 C          -9.7444   -8.6050   29.7011 C.3     1  UNL1        0.1207
     27 C          -8.8177   -7.4491   29.9798 C.ar    1  UNL1       -0.0021
     28 C          -9.2318   -6.1320   29.7305 C.ar    1  UNL1       -0.0026
     29 C          -8.3866   -5.0605   30.0236 C.ar    1  UNL1       -0.0001
     30 C          -7.1211   -5.2912   30.5672 C.ar    1  UNL1        0.0064
     31 C          -6.6838   -6.6033   30.8189 C.ar    1  UNL1        0.0752
     32 C          -7.5394   -7.6780   30.5179 C.ar    1  UNL1        0.0038
     33 C          -5.3441   -6.8541   31.3950 C.2     1  UNL1        0.3380
     34 O          -4.3272   -6.2785   30.9212 O.2     1  UNL1       -0.2451
     35 O          -5.1938   -7.7284   32.4685 O.3     1  UNL1       -0.4771
     36 H          -4.2811   -7.9064   32.8708 H       1  UNL1        0.2954
@<TRIPOS>BOND
     1    14    15    1
     2    15     4    1
     3     4     5   ar
     4     5     1    1
     5     1     2    2
     6     1     3   am
     7     3    26    1
     8    26    27    1
     9    27    28   ar
    10    28    29   ar
    11    29    30   ar
    12    30    31   ar
    13    31    33    1
    14    33    34    2
    15    33    35    1
    16    31    32   ar
    17     3    16    1
    18    16    17    1
    19    16    18    1
    20    18    19   ar
    21    19    20   ar
    22    20    21   ar
    23    21    22    1
    24    21    23   ar
    25    23    24   ar
    26    24    25    1
    27     5     6   ar
    28     6     7   ar
    29     7     8   ar
    30     8     9   ar
    31     9    10   ar
    32    10    11   ar
    33    11    12   ar
    34    12    13   ar
    35    13     4   ar
    36    32    27   ar
    37    24    18   ar
    38    13     8   ar
    39    35    36    1
@<TRIPOS>MOLECULE
*****
 36 39 0 0 0
SMALL
GASTEIGER

@<TRIPOS>ATOM
      1 C          -9.3608   -9.9767   33.0159 C.2     1  UNL1        0.2669
      2 O          -9.1280   -9.1911   33.9727 O.2     1  UNL1       -0.2682
      3 N          -9.0012   -9.5951   31.6650 N.am    1  UNL1       -0.2685
      4 C         -11.2426  -11.6510   32.7506 C.ar    1  UNL1       -0.0000
      5 C         -10.0039  -11.2640   33.3247 C.ar    1  UNL1        0.1307
      6 N          -9.4018  -12.0563   34.2482 N.ar    1  UNL1       -0.2396
      7 C          -9.9077  -13.2536   34.6239 C.ar    1  UNL1        0.0989
      8 C         -11.1069  -13.7110   34.0765 C.ar    1  UNL1        0.0189
      9 C         -11.6274  -14.9541   34.4681 C.ar    1  UNL1        0.0015
     10 C         -12.8395  -15.4031   33.9465 C.ar    1  UNL1        0.0000
     11 C         -13.5431  -14.6147   33.0380 C.ar    1  UNL1       -0.0000
     12 C         -13.0367  -13.3754   32.6376 C.ar    1  UNL1       -0.0002
     13 C         -11.8018  -12.9023   33.1400 C.ar    1  UNL1       -0.0009
     14 C         -12.5736   -9.5286   32.5775 C.3     1  UNL1        0.0051
     15 C         -11.9770  -10.7047   31.8105 C.3     1  UNL1        0.0280
     16 C          -8.6462  -10.5806   30.6156 C.3     1  UNL1        0.1007
     17 C          -9.1144  -11.9877   31.0174 C.3     1  UNL1        0.0265
     18 C          -7.1792  -10.4807   30.1987 C.ar    1  UNL1        0.0234
     19 C          -6.7803  -10.0515   28.9118 C.ar    1  UNL1        0.0019
     20 C          -5.4267   -9.9882   28.5703 C.ar    1  UNL1        0.0295
     21 C          -4.4504  -10.3424   29.5014 C.ar    1  UNL1        0.1424
     22 F          -3.1385  -10.2831   29.1647 F       1  UNL1       -0.2041
     23 C          -4.8254  -10.7554   30.7802 C.ar    1  UNL1        0.0590
     24 C          -6.1770  -10.8214   31.1316 C.ar    1  UNL1        0.1399
     25 F          -6.5055  -11.2203   32.3852 F       1  UNL1       -0.2044
     26 C          -9.0155   -8.1652   31.3098 C.3     1  UNL1        0.1207
     27 C          -7.6146   -7.6211   31.1918 C.ar    1  UNL1       -0.0021
     28 C          -7.1916   -7.0025   30.0057 C.ar    1  UNL1       -0.0026
     29 C          -5.9063   -6.4662   29.9107 C.ar    1  UNL1       -0.0001
     30 C          -5.0307   -6.5417   30.9958 C.ar    1  UNL1        0.0064
     31 C          -5.4320   -7.1629   32.1914 C.ar    1  UNL1        0.0752
     32 C          -6.7271   -7.7039   32.2787 C.ar    1  UNL1        0.0038
     33 C          -4.5088   -7.2457   33.3448 C.2     1  UNL1        0.3380
     34 O          -3.4079   -6.6311   33.3271 O.2     1  UNL1       -0.2451
     35 O          -4.8480   -8.0033   34.4629 O.3     1  UNL1       -0.4771
     36 H          -4.2234   -8.0659   35.2581 H       1  UNL1        0.2954
@<TRIPOS>BOND
     1    14    15    1
     2    15     4    1
     3     4     5   ar
     4     5     1    1
     5     1     2    2
     6     1     3   am
     7     3    26    1
     8    26    27    1
     9    27    28   ar
    10    28    29   ar
    11    29    30   ar
    12    30    31   ar
    13    31    33    1
    14    33    34    2
    15    33    35    1
    16    31    32   ar
    17     3    16    1
    18    16    17    1
    19    16    18    1
    20    18    19   ar
    21    19    20   ar
    22    20    21   ar
    23    21    22    1
    24    21    23   ar
    25    23    24   ar
    26    24    25    1
    27     5     6   ar
    28     6     7   ar
    29     7     8   ar
    30     8     9   ar
    31     9    10   ar
    32    10    11   ar
    33    11    12   ar
    34    12    13   ar
    35    13     4   ar
    36    32    27   ar
    37    24    18   ar
    38    13     8   ar
    39    35    36    1
@<TRIPOS>MOLECULE
*****
 36 39 0 0 0
SMALL
GASTEIGER

@<TRIPOS>ATOM
      1 C          -7.7272  -18.7871   21.6915 C.2     1  UNL1        0.2669
      2 O          -7.4428  -19.8632   21.1016 O.2     1  UNL1       -0.2682
      3 N          -6.6667  -17.9415   22.2016 N.am    1  UNL1       -0.2685
      4 C          -9.8658  -18.6716   23.0436 C.ar    1  UNL1       -0.0000
      5 C          -9.1498  -18.4404   21.8405 C.ar    1  UNL1        0.1307
      6 N          -9.7895  -17.9489   20.7485 N.ar    1  UNL1       -0.2396
      7 C         -11.0993  -17.6098   20.7610 C.ar    1  UNL1        0.0989
      8 C         -11.8570  -17.7816   21.9199 C.ar    1  UNL1        0.0189
      9 C         -13.2150  -17.4273   21.9288 C.ar    1  UNL1        0.0015
     10 C         -13.9840  -17.6237   23.0747 C.ar    1  UNL1        0.0000
     11 C         -13.4075  -18.1799   24.2151 C.ar    1  UNL1       -0.0000
     12 C         -12.0564  -18.5362   24.2217 C.ar    1  UNL1       -0.0002
     13 C         -11.2496  -18.3339   23.0774 C.ar    1  UNL1       -0.0009
     14 C          -9.6751  -20.7682   24.4125 C.3     1  UNL1        0.0051
     15 C          -9.1761  -19.3386   24.2261 C.3     1  UNL1        0.0280
     16 C          -6.7983  -16.4701   22.3284 C.3     1  UNL1        0.1007
     17 C          -5.8401  -15.7582   21.3610 C.3     1  UNL1        0.0265
     18 C          -6.7164  -16.0036   23.7815 C.ar    1  UNL1        0.0234
     19 C          -5.4865  -15.8130   24.4524 C.ar    1  UNL1        0.0019
     20 C          -5.4603  -15.3975   25.7865 C.ar    1  UNL1        0.0295
     21 C          -6.6518  -15.1589   26.4711 C.ar    1  UNL1        0.1424
     22 F          -6.6219  -14.7596   27.7663 F       1  UNL1       -0.2041
     23 C          -7.8743  -15.3290   25.8206 C.ar    1  UNL1        0.0590
     24 C          -7.9110  -15.7437   24.4859 C.ar    1  UNL1        0.1399
     25 F          -9.1162  -15.8921   23.8828 F       1  UNL1       -0.2044
     26 C          -5.4105  -18.5747   22.6399 C.3     1  UNL1        0.1207
     27 C          -4.4046  -18.6191   21.5181 C.ar    1  UNL1       -0.0021
     28 C          -4.5883  -19.4914   20.4346 C.ar    1  UNL1       -0.0026
     29 C          -3.6755  -19.5050   19.3787 C.ar    1  UNL1       -0.0001
     30 C          -2.5713  -18.6504   19.3924 C.ar    1  UNL1        0.0064
     31 C          -2.3647  -17.7729   20.4712 C.ar    1  UNL1        0.0752
     32 C          -3.2866  -17.7671   21.5331 C.ar    1  UNL1        0.0038
     33 C          -1.1967  -16.8647   20.4913 C.2     1  UNL1        0.3380
     34 O          -1.0997  -15.9683   21.3727 O.2     1  UNL1       -0.2451
     35 O          -0.1912  -16.9925   19.5362 O.3     1  UNL1       -0.4771
     36 H           0.6129  -16.3763   19.5416 H       1  UNL1        0.2954
@<TRIPOS>BOND
     1    14    15    1
     2    15     4    1
     3     4     5   ar
     4     5     1    1
     5     1     2    2
     6     1     3   am
     7     3    26    1
     8    26    27    1
     9    27    28   ar
    10    28    29   ar
    11    29    30   ar
    12    30    31   ar
    13    31    33    1
    14    33    34    2
    15    33    35    1
    16    31    32   ar
    17     3    16    1
    18    16    17    1
    19    16    18    1
    20    18    19   ar
    21    19    20   ar
    22    20    21   ar
    23    21    22    1
    24    21    23   ar
    25    23    24   ar
    26    24    25    1
    27     5     6   ar
    28     6     7   ar
    29     7     8   ar
    30     8     9   ar
    31     9    10   ar
    32    10    11   ar
    33    11    12   ar
    34    12    13   ar
    35    13     4   ar
    36    32    27   ar
    37    24    18   ar
    38    13     8   ar
    39    35    36    1
