@<TRIPOS>MOLECULE
*****
 46 52 0 0 0
SMALL
GASTEIGER

@<TRIPOS>ATOM
      1 C         -26.4240   50.6908   -6.7356 C.3     1  UNL1        0.0814
      2 C         -26.9239   51.8837   -5.8910 C.3     1  UNL1        0.0252
      3 C         -27.7754   51.3009   -4.7493 C.3     1  UNL1        0.0278
      4 C         -27.8484   49.8501   -5.0517 C.ar    1  UNL1       -0.0251
      5 C         -28.5710   48.9018   -4.3301 C.ar    1  UNL1       -0.0046
      6 C         -28.5040   47.5529   -4.7165 C.ar    1  UNL1       -0.0005
      7 C         -27.6997   47.1817   -5.8138 C.ar    1  UNL1       -0.0046
      8 C         -26.9378   48.1414   -6.5149 C.ar    1  UNL1       -0.0255
      9 C         -27.0869   49.4947   -6.1411 C.ar    1  UNL1       -0.0156
     10 C         -27.9650   50.8891   -8.7905 C.3     1  UNL1        0.1158
     11 N         -27.8874   51.0323  -10.1366 N.3     1  UNL1       -0.2851
     12 C         -26.5699   51.1061  -10.3657 C.3     1  UNL1        0.0910
     13 C         -25.9500   51.2652  -11.5943 C.3     1  UNL1        0.1018
     14 C         -24.5510   51.3354  -11.6059 C.3     1  UNL1        0.3136
     15 N         -23.8259   51.2544  -10.4375 N.am    1  UNL1       -0.1293
     16 C         -24.4630   51.1036   -9.2229 C.2     1  UNL1        0.4047
     17 O         -23.7929   51.0554   -8.1581 O.2     1  UNL1       -0.2174
     18 C         -25.8677   51.0165   -9.2029 C.3     1  UNL1        0.2038
     19 N         -26.7385   50.8561   -8.1738 N.3     1  UNL1       -0.2473
     20 H         -28.3590   51.8841  -10.4409 H       1  UNL1        0.1244
     21 C         -30.0079   49.4857   -8.4294 C.3     1  UNL1        0.0029
     22 C         -29.3081   50.8030   -8.1141 C.3     1  UNL1        0.0326
     23 C         -22.3582   51.3668  -10.5029 C.3     1  UNL1        0.3404
     24 C         -21.9289   52.8114  -10.3516 C.ar    1  UNL1        0.0640
     25 C         -22.8590   53.8227  -10.6528 C.ar    1  UNL1        0.0031
     26 C         -22.5184   55.1694  -10.5108 C.ar    1  UNL1       -0.0001
     27 C         -21.2450   55.5260  -10.0680 C.ar    1  UNL1        0.0007
     28 C         -20.3063   54.5371   -9.7685 C.ar    1  UNL1        0.0102
     29 C         -20.6349   53.1807   -9.9067 C.ar    1  UNL1        0.0710
     30 C         -19.6245   52.1983   -9.5952 C.1     1  UNL1        0.1003
     31 N         -18.8141   51.4109   -9.3445 N.1     1  UNL1       -0.1908
     32 C         -29.2781   46.5289   -3.9782 C.ar    1  UNL1        0.0030
     33 C         -30.6815   46.5814   -4.0428 C.ar    1  UNL1        0.0001
     34 C         -31.4586   45.5960   -3.4335 C.ar    1  UNL1        0.0000
     35 C         -30.8463   44.5454   -2.7529 C.ar    1  UNL1        0.0001
     36 C         -29.4545   44.4823   -2.6668 C.ar    1  UNL1        0.0031
     37 C         -28.6519   45.4721   -3.2632 C.ar    1  UNL1        0.0371
     38 C         -27.1816   45.4036   -3.0785 C.ar    1  UNL1        0.1806
     39 N         -26.3218   44.8296   -3.9425 N.ar    1  UNL1       -0.1084
     40 N         -25.1227   45.0098   -3.4069 N.ar    1  UNL1       -0.0229
     41 N         -25.2330   45.6708   -2.2646 N.ar    1  UNL1       -0.0464
     42 N         -26.5083   45.9315   -2.0421 N.ar    1  UNL1       -0.2388
     43 H         -26.8841   46.4330   -1.2075 H       1  UNL1        0.1923
     44 C         -25.9808   47.7095   -7.6158 C.3     1  UNL1        0.0221
     45 C         -25.0408   46.5965   -7.1326 C.3     1  UNL1        0.0047
     46 C         -26.7421   47.2789   -8.8735 C.3     1  UNL1        0.0047
@<TRIPOS>BOND
     1    21    22    1
     2    22    10    1
     3    10    11    1
     4    11    12    1
     5    12    13    1
     6    13    14    1
     7    14    15    1
     8    15    23    1
     9    23    24    1
    10    24    25   ar
    11    25    26   ar
    12    26    27   ar
    13    27    28   ar
    14    28    29   ar
    15    29    30    1
    16    30    31    3
    17    15    16    1
    18    16    17    2
    19    16    18    1
    20    18    19    1
    21    19     1    1
    22     1     2    1
    23     2     3    1
    24     3     4    1
    25     4     5   ar
    26     5     6   ar
    27     6    32    1
    28    32    33   ar
    29    33    34   ar
    30    34    35   ar
    31    35    36   ar
    32    36    37   ar
    33    37    38    1
    34    38    39   ar
    35    39    40   ar
    36    40    41   ar
    37    41    42   ar
    38     6     7   ar
    39     7     8   ar
    40     8    44    1
    41    44    45    1
    42    44    46    1
    43     8     9   ar
    44    19    10    1
    45     9     1    1
    46    18    12    1
    47     9     4   ar
    48    29    24   ar
    49    37    32   ar
    50    42    38   ar
    51    42    43    1
    52    11    20    1
@<TRIPOS>MOLECULE
*****
 46 52 0 0 0
SMALL
GASTEIGER

@<TRIPOS>ATOM
      1 C         -26.7751   50.8458   -6.8422 C.3     1  UNL1        0.0814
      2 C         -27.5056   52.0223   -6.1576 C.3     1  UNL1        0.0252
      3 C         -28.5712   51.4116   -5.2304 C.3     1  UNL1        0.0278
      4 C         -28.5114   49.9564   -5.5136 C.ar    1  UNL1       -0.0251
      5 C         -29.3397   48.9827   -4.9587 C.ar    1  UNL1       -0.0046
      6 C         -29.1288   47.6348   -5.2935 C.ar    1  UNL1       -0.0005
      7 C         -28.0790   47.2908   -6.1701 C.ar    1  UNL1       -0.0046
      8 C         -27.2176   48.2778   -6.6962 C.ar    1  UNL1       -0.0255
      9 C         -27.5057   49.6262   -6.3926 C.ar    1  UNL1       -0.0156
     10 C         -27.8148   51.0278   -9.1922 C.3     1  UNL1        0.1158
     11 N         -27.4361   51.1376  -10.4896 N.3     1  UNL1       -0.2851
     12 C         -26.0991   51.1786  -10.4205 C.3     1  UNL1        0.0910
     13 C         -25.2177   51.2958  -11.4826 C.3     1  UNL1        0.1018
     14 C         -23.8498   51.3366  -11.1833 C.3     1  UNL1        0.3136
     15 N         -23.4051   51.2680   -9.8814 N.am    1  UNL1       -0.1293
     16 C         -24.3000   51.1592   -8.8368 C.2     1  UNL1        0.4047
     17 O         -23.8850   51.1221   -7.6488 O.2     1  UNL1       -0.2174
     18 C         -25.6758   51.1018   -9.1289 C.3     1  UNL1        0.2038
     19 N         -26.7574   50.9838   -8.3171 N.3     1  UNL1       -0.2473
     20 H         -27.8063   51.9916  -10.9068 H       1  UNL1        0.1244
     21 C         -29.8878   49.6231   -9.1379 C.3     1  UNL1        0.0029
     22 C         -29.2764   50.9856   -8.8308 C.3     1  UNL1        0.0326
     23 C         -21.9572   51.3483   -9.6200 C.3     1  UNL1        0.3404
     24 C         -21.4746   52.7791   -9.7385 C.ar    1  UNL1        0.0640
     25 C         -22.1716   53.6536  -10.5918 C.ar    1  UNL1        0.0031
     26 C         -21.7784   54.9873  -10.7208 C.ar    1  UNL1       -0.0001
     27 C         -20.6838   55.4665  -10.0019 C.ar    1  UNL1        0.0007
     28 C         -19.9763   54.6131   -9.1534 C.ar    1  UNL1        0.0102
     29 C         -20.3602   53.2713   -9.0143 C.ar    1  UNL1        0.0710
     30 C         -19.5881   52.4281   -8.1334 C.1     1  UNL1        0.1003
     31 N         -18.9698   51.7514   -7.4269 N.1     1  UNL1       -0.1908
     32 C         -30.0078   46.5833   -4.7328 C.ar    1  UNL1        0.0030
     33 C         -30.7595   45.7991   -5.6252 C.ar    1  UNL1        0.0001
     34 C         -31.5419   44.7427   -5.1579 C.ar    1  UNL1        0.0000
     35 C         -31.5839   44.4544   -3.7952 C.ar    1  UNL1        0.0001
     36 C         -30.8546   45.2293   -2.8918 C.ar    1  UNL1        0.0031
     37 C         -30.0689   46.3070   -3.3399 C.ar    1  UNL1        0.0371
     38 C         -29.3741   47.1482   -2.3348 C.ar    1  UNL1        0.1806
     39 N         -29.9442   47.6485   -1.2214 N.ar    1  UNL1       -0.1084
     40 N         -28.9756   48.3124   -0.6062 N.ar    1  UNL1       -0.0229
     41 N         -27.8535   48.2233   -1.3039 N.ar    1  UNL1       -0.0464
     42 N         -28.0772   47.4973   -2.3840 N.ar    1  UNL1       -0.2388
     43 H         -27.3692   47.2749   -3.1180 H       1  UNL1        0.1923
     44 C         -26.0159   47.8801   -7.5401 C.3     1  UNL1        0.0221
     45 C         -25.1695   46.8107   -6.8360 C.3     1  UNL1        0.0047
     46 C         -26.4487   47.4102   -8.9325 C.3     1  UNL1        0.0047
@<TRIPOS>BOND
     1    21    22    1
     2    22    10    1
     3    10    11    1
     4    11    12    1
     5    12    13    1
     6    13    14    1
     7    14    15    1
     8    15    23    1
     9    23    24    1
    10    24    25   ar
    11    25    26   ar
    12    26    27   ar
    13    27    28   ar
    14    28    29   ar
    15    29    30    1
    16    30    31    3
    17    15    16    1
    18    16    17    2
    19    16    18    1
    20    18    19    1
    21    19     1    1
    22     1     2    1
    23     2     3    1
    24     3     4    1
    25     4     5   ar
    26     5     6   ar
    27     6    32    1
    28    32    33   ar
    29    33    34   ar
    30    34    35   ar
    31    35    36   ar
    32    36    37   ar
    33    37    38    1
    34    38    39   ar
    35    39    40   ar
    36    40    41   ar
    37    41    42   ar
    38     6     7   ar
    39     7     8   ar
    40     8    44    1
    41    44    45    1
    42    44    46    1
    43     8     9   ar
    44    19    10    1
    45     9     1    1
    46    18    12    1
    47     9     4   ar
    48    29    24   ar
    49    37    32   ar
    50    42    38   ar
    51    42    43    1
    52    11    20    1
@<TRIPOS>MOLECULE
*****
 46 52 0 0 0
SMALL
GASTEIGER

@<TRIPOS>ATOM
      1 C         -27.9694   50.1243   -6.1177 C.3     1  UNL1        0.0814
      2 C         -26.8462   51.1539   -6.3716 C.3     1  UNL1        0.0252
      3 C         -27.1123   51.7785   -7.7526 C.3     1  UNL1        0.0278
      4 C         -28.2625   51.0080   -8.2866 C.ar    1  UNL1       -0.0251
      5 C         -28.8338   51.1642   -9.5481 C.ar    1  UNL1       -0.0046
      6 C         -29.9523   50.3872   -9.8924 C.ar    1  UNL1       -0.0005
      7 C         -30.4834   49.4771   -8.9552 C.ar    1  UNL1       -0.0046
      8 C         -29.9253   49.3534   -7.6644 C.ar    1  UNL1       -0.0255
      9 C         -28.7603   50.0991   -7.3816 C.ar    1  UNL1       -0.0156
     10 C         -26.6135   47.9657   -6.4905 C.3     1  UNL1        0.1158
     11 N         -26.3309   46.7961   -5.8654 N.3     1  UNL1       -0.2851
     12 C         -26.9821   46.9014   -4.6999 C.3     1  UNL1        0.0910
     13 C         -27.0124   45.9647   -3.6799 C.3     1  UNL1        0.1018
     14 C         -27.7468   46.2862   -2.5312 C.3     1  UNL1        0.3136
     15 N         -28.4064   47.4907   -2.4238 N.am    1  UNL1       -0.1293
     16 C         -28.3575   48.4137   -3.4482 C.2     1  UNL1        0.4047
     17 O         -28.9431   49.5220   -3.3304 O.2     1  UNL1       -0.2174
     18 C         -27.6348   48.0930   -4.6127 C.3     1  UNL1        0.2038
     19 N         -27.4321   48.7910   -5.7593 N.3     1  UNL1       -0.2473
     20 H         -25.3270   46.6961   -5.7148 H       1  UNL1        0.1244
     21 C         -26.7772   47.5230   -8.9503 C.3     1  UNL1        0.0029
     22 C         -26.0279   48.2609   -7.8464 C.3     1  UNL1        0.0326
     23 C         -29.1372   47.7921   -1.1803 C.3     1  UNL1        0.3404
     24 C         -30.0056   46.6187   -0.7767 C.ar    1  UNL1        0.0640
     25 C         -30.3634   45.6793   -1.7608 C.ar    1  UNL1        0.0031
     26 C         -31.1462   44.5696   -1.4354 C.ar    1  UNL1       -0.0001
     27 C         -31.5840   44.3824   -0.1247 C.ar    1  UNL1        0.0007
     28 C         -31.2433   45.3059    0.8651 C.ar    1  UNL1        0.0102
     29 C         -30.4579   46.4250    0.5524 C.ar    1  UNL1        0.0710
     30 C         -30.1437   47.3556    1.6099 C.1     1  UNL1        0.1003
     31 N         -29.8908   48.1016    2.4578 N.1     1  UNL1       -0.1908
     32 C         -30.5654   50.5204  -11.2337 C.ar    1  UNL1        0.0030
     33 C         -30.9112   51.8071  -11.6822 C.ar    1  UNL1        0.0001
     34 C         -31.4171   51.9997  -12.9680 C.ar    1  UNL1        0.0000
     35 C         -31.5837   50.9121  -13.8231 C.ar    1  UNL1        0.0001
     36 C         -31.2580   49.6249  -13.3920 C.ar    1  UNL1        0.0031
     37 C         -30.7581   49.4064  -12.0951 C.ar    1  UNL1        0.0371
     38 C         -30.4998   48.0129  -11.6569 C.ar    1  UNL1        0.1806
     39 N         -29.2994   47.4024  -11.6956 N.ar    1  UNL1       -0.1084
     40 N         -29.5117   46.1918  -11.1989 N.ar    1  UNL1       -0.0229
     41 N         -30.7857   46.0590  -10.8621 N.ar    1  UNL1       -0.0464
     42 N         -31.4202   47.1847  -11.1343 N.ar    1  UNL1       -0.2388
     43 H         -32.4381   47.3553  -10.9790 H       1  UNL1        0.1923
     44 C         -30.5833   48.4597   -6.6238 C.3     1  UNL1        0.0221
     45 C         -31.5279   49.2610   -5.7175 C.3     1  UNL1        0.0047
     46 C         -31.3171   47.2885   -7.2846 C.3     1  UNL1        0.0047
@<TRIPOS>BOND
     1    21    22    1
     2    22    10    1
     3    10    11    1
     4    11    12    1
     5    12    13    1
     6    13    14    1
     7    14    15    1
     8    15    23    1
     9    23    24    1
    10    24    25   ar
    11    25    26   ar
    12    26    27   ar
    13    27    28   ar
    14    28    29   ar
    15    29    30    1
    16    30    31    3
    17    15    16    1
    18    16    17    2
    19    16    18    1
    20    18    19    1
    21    19     1    1
    22     1     2    1
    23     2     3    1
    24     3     4    1
    25     4     5   ar
    26     5     6   ar
    27     6    32    1
    28    32    33   ar
    29    33    34   ar
    30    34    35   ar
    31    35    36   ar
    32    36    37   ar
    33    37    38    1
    34    38    39   ar
    35    39    40   ar
    36    40    41   ar
    37    41    42   ar
    38     6     7   ar
    39     7     8   ar
    40     8    44    1
    41    44    45    1
    42    44    46    1
    43     8     9   ar
    44    19    10    1
    45     9     1    1
    46    18    12    1
    47     9     4   ar
    48    29    24   ar
    49    37    32   ar
    50    42    38   ar
    51    42    43    1
    52    11    20    1
@<TRIPOS>MOLECULE
*****
 46 52 0 0 0
SMALL
GASTEIGER

@<TRIPOS>ATOM
      1 C         -27.3978   49.9788   -7.8432 C.3     1  UNL1        0.0814
      2 C         -26.7031   51.1576   -7.1261 C.3     1  UNL1        0.0252
      3 C         -26.0826   50.5956   -5.8349 C.3     1  UNL1        0.0278
      4 C         -26.5493   49.1879   -5.7876 C.ar    1  UNL1       -0.0251
      5 C         -26.2976   48.2791   -4.7616 C.ar    1  UNL1       -0.0046
      6 C         -26.7717   46.9624   -4.8837 C.ar    1  UNL1       -0.0005
      7 C         -27.4787   46.5813   -6.0429 C.ar    1  UNL1       -0.0046
      8 C         -27.6944   47.4955   -7.0969 C.ar    1  UNL1       -0.0255
      9 C         -27.2648   48.8267   -6.9059 C.ar    1  UNL1       -0.0156
     10 C         -29.8367   50.6298   -7.3282 C.3     1  UNL1        0.1158
     11 N         -31.0189   50.8146   -7.9661 N.3     1  UNL1       -0.2851
     12 C         -30.7171   50.5888   -9.2513 C.3     1  UNL1        0.0910
     13 C         -31.5832   50.6566  -10.3302 C.3     1  UNL1        0.1018
     14 C         -31.0519   50.3979  -11.6003 C.3     1  UNL1        0.3136
     15 N         -29.7184   50.0940  -11.7641 N.am    1  UNL1       -0.1293
     16 C         -28.8704   50.0390  -10.6771 C.2     1  UNL1        0.4047
     17 O         -27.6481   49.7848  -10.8398 O.2     1  UNL1       -0.2174
     18 C         -29.3985   50.2822   -9.3952 C.3     1  UNL1        0.2038
     19 N         -28.8105   50.2813   -8.1716 N.3     1  UNL1       -0.2473
     20 H         -31.3603   51.7665   -7.8332 H       1  UNL1        0.1244
     21 C         -30.6754   49.8855   -5.0886 C.3     1  UNL1        0.0029
     22 C         -29.7407   50.8282   -5.8382 C.3     1  UNL1        0.0326
     23 C         -29.2045   49.8628  -13.1256 C.3     1  UNL1        0.3404
     24 C         -29.7036   48.5381  -13.6639 C.ar    1  UNL1        0.0640
     25 C         -30.0041   47.5127  -12.7491 C.ar    1  UNL1        0.0031
     26 C         -30.4858   46.2797  -13.1937 C.ar    1  UNL1       -0.0001
     27 C         -30.6728   46.0519  -14.5568 C.ar    1  UNL1        0.0007
     28 C         -30.3758   47.0554  -15.4807 C.ar    1  UNL1        0.0102
     29 C         -29.8913   48.2984  -15.0481 C.ar    1  UNL1        0.0710
     30 C         -29.5886   49.2975  -16.0448 C.1     1  UNL1        0.1003
     31 N         -29.3461   50.0980  -16.8446 N.1     1  UNL1       -0.1908
     32 C         -26.5345   45.9834   -3.7984 C.ar    1  UNL1        0.0030
     33 C         -25.5325   45.0149   -3.9836 C.ar    1  UNL1        0.0001
     34 C         -25.2119   44.1194   -2.9630 C.ar    1  UNL1        0.0000
     35 C         -25.8858   44.1787   -1.7447 C.ar    1  UNL1        0.0001
     36 C         -26.8927   45.1249   -1.5457 C.ar    1  UNL1        0.0031
     37 C         -27.2406   46.0295   -2.5657 C.ar    1  UNL1        0.0371
     38 C         -28.3687   46.9645   -2.3341 C.ar    1  UNL1        0.1806
     39 N         -29.6473   46.7334   -2.6904 N.ar    1  UNL1       -0.1084
     40 N         -30.3176   47.8019   -2.2829 N.ar    1  UNL1       -0.0229
     41 N         -29.4928   48.6553   -1.6951 N.ar    1  UNL1       -0.0464
     42 N         -28.2724   48.1514   -1.7111 N.ar    1  UNL1       -0.2388
     43 H         -27.4226   48.6181   -1.3245 H       1  UNL1        0.1923
     44 C         -28.3490   47.0370   -8.3914 C.3     1  UNL1        0.0221
     45 C         -27.3199   46.4199   -9.3485 C.3     1  UNL1        0.0047
     46 C         -29.4977   46.0617   -8.1155 C.3     1  UNL1        0.0047
@<TRIPOS>BOND
     1    21    22    1
     2    22    10    1
     3    10    11    1
     4    11    12    1
     5    12    13    1
     6    13    14    1
     7    14    15    1
     8    15    23    1
     9    23    24    1
    10    24    25   ar
    11    25    26   ar
    12    26    27   ar
    13    27    28   ar
    14    28    29   ar
    15    29    30    1
    16    30    31    3
    17    15    16    1
    18    16    17    2
    19    16    18    1
    20    18    19    1
    21    19     1    1
    22     1     2    1
    23     2     3    1
    24     3     4    1
    25     4     5   ar
    26     5     6   ar
    27     6    32    1
    28    32    33   ar
    29    33    34   ar
    30    34    35   ar
    31    35    36   ar
    32    36    37   ar
    33    37    38    1
    34    38    39   ar
    35    39    40   ar
    36    40    41   ar
    37    41    42   ar
    38     6     7   ar
    39     7     8   ar
    40     8    44    1
    41    44    45    1
    42    44    46    1
    43     8     9   ar
    44    19    10    1
    45     9     1    1
    46    18    12    1
    47     9     4   ar
    48    29    24   ar
    49    37    32   ar
    50    42    38   ar
    51    42    43    1
    52    11    20    1
@<TRIPOS>MOLECULE
*****
 46 52 0 0 0
SMALL
GASTEIGER

@<TRIPOS>ATOM
      1 C         -26.6484   50.6963   -6.8103 C.3     1  UNL1        0.0814
      2 C         -27.2355   51.8747   -6.0022 C.3     1  UNL1        0.0252
      3 C         -28.1439   51.2682   -4.9182 C.3     1  UNL1        0.0278
      4 C         -28.1568   49.8160   -5.2226 C.ar    1  UNL1       -0.0251
      5 C         -28.8989   48.8479   -4.5488 C.ar    1  UNL1       -0.0046
      6 C         -28.7694   47.5014   -4.9279 C.ar    1  UNL1       -0.0005
      7 C         -27.8848   47.1530   -5.9694 C.ar    1  UNL1       -0.0046
      8 C         -27.1051   48.1336   -6.6202 C.ar    1  UNL1       -0.0255
      9 C         -27.3158   49.4821   -6.2591 C.ar    1  UNL1       -0.0156
     10 C         -28.0573   50.8796   -8.9594 C.3     1  UNL1        0.1158
     11 N         -27.8953   51.0162  -10.2987 N.3     1  UNL1       -0.2851
     12 C         -26.5661   51.0929  -10.4446 C.3     1  UNL1        0.0910
     13 C         -25.8704   51.2476  -11.6324 C.3     1  UNL1        0.1018
     14 C         -24.4737   51.3220  -11.5561 C.3     1  UNL1        0.3136
     15 N         -23.8235   51.2491  -10.3439 N.am    1  UNL1       -0.1293
     16 C         -24.5355   51.1026   -9.1712 C.2     1  UNL1        0.4047
     17 O         -23.9337   51.0618   -8.0660 O.2     1  UNL1       -0.2174
     18 C         -25.9385   51.0113   -9.2394 C.3     1  UNL1        0.2038
     19 N         -26.8720   50.8534   -8.2664 N.3     1  UNL1       -0.2473
     20 H         -28.3490   51.8650  -10.6365 H       1  UNL1        0.1244
     21 C         -30.1084   49.4647   -8.7060 C.3     1  UNL1        0.0029
     22 C         -29.4400   50.7928   -8.3685 C.3     1  UNL1        0.0326
     23 C         -22.3549   51.3657  -10.3173 C.3     1  UNL1        0.3404
     24 C         -21.9386   52.8205  -10.2519 C.ar    1  UNL1        0.0640
     25 C         -22.8761   53.8035  -10.6171 C.ar    1  UNL1        0.0031
     26 C         -22.5477   55.1594  -10.5554 C.ar    1  UNL1       -0.0001
     27 C         -21.2793   55.5532  -10.1302 C.ar    1  UNL1        0.0007
     28 C         -20.3335   54.5925   -9.7679 C.ar    1  UNL1        0.0102
     29 C         -20.6498   53.2274   -9.8252 C.ar    1  UNL1        0.0710
     30 C         -19.6323   52.2745   -9.4511 C.1     1  UNL1        0.1003
     31 N         -18.8166   51.5107   -9.1502 N.1     1  UNL1       -0.1908
     32 C         -29.5619   46.4563   -4.2407 C.ar    1  UNL1        0.0030
     33 C         -29.5076   46.3955   -2.8372 C.ar    1  UNL1        0.0001
     34 C         -30.2955   45.4838   -2.1341 C.ar    1  UNL1        0.0000
     35 C         -31.1480   44.6220   -2.8213 C.ar    1  UNL1        0.0001
     36 C         -31.2068   44.6581   -4.2155 C.ar    1  UNL1        0.0031
     37 C         -30.4119   45.5610   -4.9452 C.ar    1  UNL1        0.0371
     38 C         -30.4520   45.5085   -6.4272 C.ar    1  UNL1        0.1806
     39 N         -29.8022   44.6035   -7.1846 N.ar    1  UNL1       -0.1084
     40 N         -30.1258   44.9036   -8.4346 N.ar    1  UNL1       -0.0229
     41 N         -30.9442   45.9447   -8.4516 N.ar    1  UNL1       -0.0464
     42 N         -31.1656   46.3357   -7.2099 N.ar    1  UNL1       -0.2388
     43 H         -31.7659   47.1424   -6.9302 H       1  UNL1        0.1923
     44 C         -26.0661   47.7287   -7.6552 C.3     1  UNL1        0.0221
     45 C         -25.0957   46.6819   -7.0911 C.3     1  UNL1        0.0047
     46 C         -26.7317   47.2258   -8.9400 C.3     1  UNL1        0.0047
@<TRIPOS>BOND
     1    21    22    1
     2    22    10    1
     3    10    11    1
     4    11    12    1
     5    12    13    1
     6    13    14    1
     7    14    15    1
     8    15    23    1
     9    23    24    1
    10    24    25   ar
    11    25    26   ar
    12    26    27   ar
    13    27    28   ar
    14    28    29   ar
    15    29    30    1
    16    30    31    3
    17    15    16    1
    18    16    17    2
    19    16    18    1
    20    18    19    1
    21    19     1    1
    22     1     2    1
    23     2     3    1
    24     3     4    1
    25     4     5   ar
    26     5     6   ar
    27     6    32    1
    28    32    33   ar
    29    33    34   ar
    30    34    35   ar
    31    35    36   ar
    32    36    37   ar
    33    37    38    1
    34    38    39   ar
    35    39    40   ar
    36    40    41   ar
    37    41    42   ar
    38     6     7   ar
    39     7     8   ar
    40     8    44    1
    41    44    45    1
    42    44    46    1
    43     8     9   ar
    44    19    10    1
    45     9     1    1
    46    18    12    1
    47     9     4   ar
    48    29    24   ar
    49    37    32   ar
    50    42    38   ar
    51    42    43    1
    52    11    20    1
@<TRIPOS>MOLECULE
*****
 46 52 0 0 0
SMALL
GASTEIGER

@<TRIPOS>ATOM
      1 C         -30.4423   48.7305   -7.3739 C.3     1  UNL1        0.0814
      2 C         -30.6480   50.2611   -7.4111 C.3     1  UNL1        0.0252
      3 C         -30.7907   50.6598   -8.8905 C.3     1  UNL1        0.0278
      4 C         -30.5288   49.4031   -9.6347 C.ar    1  UNL1       -0.0251
      5 C         -30.4816   49.2709  -11.0211 C.ar    1  UNL1       -0.0046
      6 C         -30.2663   47.9998  -11.5792 C.ar    1  UNL1       -0.0005
      7 C         -30.1161   46.8831  -10.7312 C.ar    1  UNL1       -0.0046
      8 C         -30.2062   47.0173   -9.3287 C.ar    1  UNL1       -0.0255
      9 C         -30.3525   48.3201   -8.8046 C.ar    1  UNL1       -0.0156
     10 C         -27.9149   48.4975   -6.9323 C.3     1  UNL1        0.1158
     11 N         -27.0653   48.0134   -5.9930 N.3     1  UNL1       -0.2851
     12 C         -27.8855   47.5616   -5.0354 C.3     1  UNL1        0.0910
     13 C         -27.5157   46.9708   -3.8384 C.3     1  UNL1        0.1018
     14 C         -28.5417   46.5841   -2.9666 C.3     1  UNL1        0.3136
     15 N         -29.8646   46.7910   -3.2902 N.am    1  UNL1       -0.1293
     16 C         -30.2118   47.3884   -4.4845 C.2     1  UNL1        0.4047
     17 O         -31.4226   47.5957   -4.7603 O.2     1  UNL1       -0.2174
     18 C         -29.1882   47.7662   -5.3737 C.3     1  UNL1        0.2038
     19 N         -29.2388   48.3490   -6.5988 N.3     1  UNL1       -0.2473
     20 H         -26.4581   48.7509   -5.6354 H       1  UNL1        0.1244
     21 C         -26.6347   48.1305   -9.0536 C.3     1  UNL1        0.0029
     22 C         -27.3751   49.1399   -8.1831 C.3     1  UNL1        0.0326
     23 C         -30.9030   46.3952   -2.3226 C.3     1  UNL1        0.3404
     24 C         -31.0316   47.4330   -1.2271 C.ar    1  UNL1        0.0640
     25 C         -31.1092   48.7889   -1.5934 C.ar    1  UNL1        0.0031
     26 C         -31.2482   49.7826   -0.6221 C.ar    1  UNL1       -0.0001
     27 C         -31.3100   49.4377    0.7276 C.ar    1  UNL1        0.0007
     28 C         -31.2300   48.0980    1.1116 C.ar    1  UNL1        0.0102
     29 C         -31.0902   47.0897    0.1467 C.ar    1  UNL1        0.0710
     30 C         -31.0003   45.7215    0.5972 C.1     1  UNL1        0.1003
     31 N         -30.9289   44.6241    0.9578 N.1     1  UNL1       -0.1908
     32 C         -30.1921   47.8362  -13.0490 C.ar    1  UNL1        0.0030
     33 C         -30.2701   46.5361  -13.5783 C.ar    1  UNL1        0.0001
     34 C         -30.2865   46.3300  -14.9580 C.ar    1  UNL1        0.0000
     35 C         -30.2261   47.4175  -15.8273 C.ar    1  UNL1        0.0001
     36 C         -30.1356   48.7154  -15.3213 C.ar    1  UNL1        0.0031
     37 C         -30.1051   48.9453  -13.9336 C.ar    1  UNL1        0.0371
     38 C         -29.9302   50.3352  -13.4456 C.ar    1  UNL1        0.1806
     39 N         -30.9102   51.2571  -13.3763 N.ar    1  UNL1       -0.1084
     40 N         -30.3322   52.3378  -12.8712 N.ar    1  UNL1       -0.0229
     41 N         -29.0522   52.0956  -12.6327 N.ar    1  UNL1       -0.0464
     42 N         -28.7802   50.8506  -12.9788 N.ar    1  UNL1       -0.2388
     43 H         -27.8431   50.3965  -12.9078 H       1  UNL1        0.1923
     44 C         -30.1661   45.7877   -8.4337 C.3     1  UNL1        0.0221
     45 C         -31.5800   45.3370   -8.0417 C.3     1  UNL1        0.0047
     46 C         -29.3888   44.6460   -9.0964 C.3     1  UNL1        0.0047
@<TRIPOS>BOND
     1    21    22    1
     2    22    10    1
     3    10    11    1
     4    11    12    1
     5    12    13    1
     6    13    14    1
     7    14    15    1
     8    15    23    1
     9    23    24    1
    10    24    25   ar
    11    25    26   ar
    12    26    27   ar
    13    27    28   ar
    14    28    29   ar
    15    29    30    1
    16    30    31    3
    17    15    16    1
    18    16    17    2
    19    16    18    1
    20    18    19    1
    21    19     1    1
    22     1     2    1
    23     2     3    1
    24     3     4    1
    25     4     5   ar
    26     5     6   ar
    27     6    32    1
    28    32    33   ar
    29    33    34   ar
    30    34    35   ar
    31    35    36   ar
    32    36    37   ar
    33    37    38    1
    34    38    39   ar
    35    39    40   ar
    36    40    41   ar
    37    41    42   ar
    38     6     7   ar
    39     7     8   ar
    40     8    44    1
    41    44    45    1
    42    44    46    1
    43     8     9   ar
    44    19    10    1
    45     9     1    1
    46    18    12    1
    47     9     4   ar
    48    29    24   ar
    49    37    32   ar
    50    42    38   ar
    51    42    43    1
    52    11    20    1
@<TRIPOS>MOLECULE
*****
 46 52 0 0 0
SMALL
GASTEIGER

@<TRIPOS>ATOM
      1 C         -27.6253   48.0704   -5.2001 C.3     1  UNL1        0.0814
      2 C         -26.4299   47.3120   -5.8183 C.3     1  UNL1        0.0252
      3 C         -26.2917   47.7987   -7.2717 C.3     1  UNL1        0.0278
      4 C         -27.4633   48.6865   -7.4728 C.ar    1  UNL1       -0.0251
      5 C         -27.8107   49.3215   -8.6637 C.ar    1  UNL1       -0.0046
      6 C         -28.9295   50.1708   -8.6839 C.ar    1  UNL1       -0.0005
      7 C         -29.6698   50.3759   -7.5013 C.ar    1  UNL1       -0.0046
      8 C         -29.2883   49.7621   -6.2885 C.ar    1  UNL1       -0.0255
      9 C         -28.2018   48.8613   -6.3251 C.ar    1  UNL1       -0.0156
     10 C         -29.0166   47.0622   -3.2805 C.3     1  UNL1        0.1158
     11 N         -29.9285   46.0828   -3.0624 N.3     1  UNL1       -0.2851
     12 C         -30.1114   45.5522   -4.2785 C.3     1  UNL1        0.0910
     13 C         -30.9615   44.5094   -4.6083 C.3     1  UNL1        0.1018
     14 C         -31.0119   44.1198   -5.9529 C.3     1  UNL1        0.3136
     15 N         -30.2479   44.7562   -6.9061 N.am    1  UNL1       -0.1293
     16 C         -29.4130   45.7982   -6.5581 C.2     1  UNL1        0.4047
     17 O         -28.7373   46.3898   -7.4404 O.2     1  UNL1       -0.2174
     18 C         -29.3440   46.1864   -5.2069 C.3     1  UNL1        0.2038
     19 N         -28.6133   47.1502   -4.5903 N.3     1  UNL1       -0.2473
     20 H         -30.7993   46.4694   -2.6982 H       1  UNL1        0.1244
     21 C         -29.7059   48.2628   -1.1932 C.3     1  UNL1        0.0029
     22 C         -28.5590   47.9381   -2.1438 C.3     1  UNL1        0.0326
     23 C         -30.3637   44.3283   -8.3113 C.3     1  UNL1        0.3404
     24 C         -30.4043   45.5308   -9.2312 C.ar    1  UNL1        0.0640
     25 C         -31.5069   46.4005   -9.1500 C.ar    1  UNL1        0.0031
     26 C         -31.5821   47.5337   -9.9626 C.ar    1  UNL1       -0.0001
     27 C         -30.5595   47.8140  -10.8684 C.ar    1  UNL1        0.0007
     28 C         -29.4592   46.9606  -10.9671 C.ar    1  UNL1        0.0102
     29 C         -29.3708   45.8190  -10.1572 C.ar    1  UNL1        0.0710
     30 C         -28.2182   44.9634  -10.3068 C.1     1  UNL1        0.1003
     31 N         -27.2944   44.2765  -10.4264 N.1     1  UNL1       -0.1908
     32 C         -29.3308   50.8416   -9.9415 C.ar    1  UNL1        0.0030
     33 C         -30.6842   50.7925  -10.3190 C.ar    1  UNL1        0.0001
     34 C         -31.1318   51.4744  -11.4507 C.ar    1  UNL1        0.0000
     35 C         -30.2361   52.2146  -12.2199 C.ar    1  UNL1        0.0001
     36 C         -28.8859   52.2654  -11.8688 C.ar    1  UNL1        0.0031
     37 C         -28.4107   51.5752  -10.7387 C.ar    1  UNL1        0.0371
     38 C         -26.9556   51.5964  -10.4509 C.ar    1  UNL1        0.1806
     39 N         -26.3885   52.1998   -9.3881 N.ar    1  UNL1       -0.1084
     40 N         -25.0904   51.9586   -9.5064 N.ar    1  UNL1       -0.0229
     41 N         -24.8629   51.2334  -10.5910 N.ar    1  UNL1       -0.0464
     42 N         -26.0129   50.9912  -11.1932 N.ar    1  UNL1       -0.2388
     43 H         -26.1273   50.4500  -12.0783 H       1  UNL1        0.1923
     44 C         -30.0214   50.0895   -4.9963 C.3     1  UNL1        0.0221
     45 C         -30.1052   51.6055   -4.7715 C.3     1  UNL1        0.0047
     46 C         -31.4143   49.4522   -4.9735 C.3     1  UNL1        0.0047
@<TRIPOS>BOND
     1    21    22    1
     2    22    10    1
     3    10    11    1
     4    11    12    1
     5    12    13    1
     6    13    14    1
     7    14    15    1
     8    15    23    1
     9    23    24    1
    10    24    25   ar
    11    25    26   ar
    12    26    27   ar
    13    27    28   ar
    14    28    29   ar
    15    29    30    1
    16    30    31    3
    17    15    16    1
    18    16    17    2
    19    16    18    1
    20    18    19    1
    21    19     1    1
    22     1     2    1
    23     2     3    1
    24     3     4    1
    25     4     5   ar
    26     5     6   ar
    27     6    32    1
    28    32    33   ar
    29    33    34   ar
    30    34    35   ar
    31    35    36   ar
    32    36    37   ar
    33    37    38    1
    34    38    39   ar
    35    39    40   ar
    36    40    41   ar
    37    41    42   ar
    38     6     7   ar
    39     7     8   ar
    40     8    44    1
    41    44    45    1
    42    44    46    1
    43     8     9   ar
    44    19    10    1
    45     9     1    1
    46    18    12    1
    47     9     4   ar
    48    29    24   ar
    49    37    32   ar
    50    42    38   ar
    51    42    43    1
    52    11    20    1
@<TRIPOS>MOLECULE
*****
 46 52 0 0 0
SMALL
GASTEIGER

@<TRIPOS>ATOM
      1 C         -27.5146   48.6621   -7.5791 C.3     1  UNL1        0.0814
      2 C         -26.1975   48.5126   -8.3724 C.3     1  UNL1        0.0252
      3 C         -26.3482   49.3483   -9.6557 C.3     1  UNL1        0.0278
      4 C         -27.7550   49.8189   -9.6224 C.ar    1  UNL1       -0.0251
      5 C         -28.3886   50.5669  -10.6129 C.ar    1  UNL1       -0.0046
      6 C         -29.7175   50.9766  -10.4144 C.ar    1  UNL1       -0.0005
      7 C         -30.3796   50.6374   -9.2163 C.ar    1  UNL1       -0.0046
      8 C         -29.7186   49.9149   -8.1994 C.ar    1  UNL1       -0.0255
      9 C         -28.4085   49.4609   -8.4658 C.ar    1  UNL1       -0.0156
     10 C         -28.5362   46.3436   -8.0459 C.3     1  UNL1        0.1158
     11 N         -29.0422   45.2781   -7.3771 N.3     1  UNL1       -0.2851
     12 C         -28.9033   45.6243   -6.0907 C.3     1  UNL1        0.0910
     13 C         -29.2637   44.8702   -4.9861 C.3     1  UNL1        0.1018
     14 C         -29.0129   45.4187   -3.7218 C.3     1  UNL1        0.3136
     15 N         -28.4255   46.6575   -3.5886 N.am    1  UNL1       -0.1293
     16 C         -28.0668   47.3896   -4.7018 C.2     1  UNL1        0.4047
     17 O         -27.5080   48.5100   -4.5697 O.2     1  UNL1       -0.2174
     18 C         -28.3291   46.8533   -5.9765 C.3     1  UNL1        0.2038
     19 N         -28.0999   47.3496   -7.2192 N.3     1  UNL1       -0.2473
     20 H         -28.5135   44.4313   -7.5863 H       1  UNL1        0.1244
     21 C         -29.7693   45.8004  -10.1573 C.3     1  UNL1        0.0029
     22 C         -28.4765   46.3346   -9.5509 C.3     1  UNL1        0.0326
     23 C         -28.1540   47.1733   -2.2353 C.3     1  UNL1        0.3404
     24 C         -29.3708   47.0058   -1.3491 C.ar    1  UNL1        0.0640
     25 C         -29.3758   45.9613   -0.4069 C.ar    1  UNL1        0.0031
     26 C         -30.4653   45.7769    0.4468 C.ar    1  UNL1       -0.0001
     27 C         -31.5654   46.6306    0.3714 C.ar    1  UNL1        0.0007
     28 C         -31.5815   47.6702   -0.5601 C.ar    1  UNL1        0.0102
     29 C         -30.4940   47.8669   -1.4237 C.ar    1  UNL1        0.0710
     30 C         -30.5657   48.9489   -2.3762 C.1     1  UNL1        0.1003
     31 N         -30.6237   49.8159   -3.1406 N.1     1  UNL1       -0.1908
     32 C         -30.4193   51.7553  -11.4602 C.ar    1  UNL1        0.0030
     33 C         -30.5093   53.1495  -11.3036 C.ar    1  UNL1        0.0001
     34 C         -31.0881   53.9406  -12.2963 C.ar    1  UNL1        0.0000
     35 C         -31.5836   53.3517  -13.4580 C.ar    1  UNL1        0.0001
     36 C         -31.5150   51.9677  -13.6268 C.ar    1  UNL1        0.0031
     37 C         -30.9468   51.1498  -12.6331 C.ar    1  UNL1        0.0371
     38 C         -30.9668   49.6788  -12.8239 C.ar    1  UNL1        0.1806
     39 N         -30.4252   49.0300  -13.8731 N.ar    1  UNL1       -0.1084
     40 N         -30.6480   47.7449  -13.6365 N.ar    1  UNL1       -0.0229
     41 N         -31.2941   47.6024  -12.4892 N.ar    1  UNL1       -0.0464
     42 N         -31.4992   48.7956  -11.9621 N.ar    1  UNL1       -0.2388
     43 H         -31.9962   48.9799  -11.0630 H       1  UNL1        0.1923
     44 C         -30.4034   49.6637   -6.8643 C.3     1  UNL1        0.0221
     45 C         -30.8560   50.9781   -6.2138 C.3     1  UNL1        0.0047
     46 C         -31.5786   48.6933   -7.0191 C.3     1  UNL1        0.0047
@<TRIPOS>BOND
     1    21    22    1
     2    22    10    1
     3    10    11    1
     4    11    12    1
     5    12    13    1
     6    13    14    1
     7    14    15    1
     8    15    23    1
     9    23    24    1
    10    24    25   ar
    11    25    26   ar
    12    26    27   ar
    13    27    28   ar
    14    28    29   ar
    15    29    30    1
    16    30    31    3
    17    15    16    1
    18    16    17    2
    19    16    18    1
    20    18    19    1
    21    19     1    1
    22     1     2    1
    23     2     3    1
    24     3     4    1
    25     4     5   ar
    26     5     6   ar
    27     6    32    1
    28    32    33   ar
    29    33    34   ar
    30    34    35   ar
    31    35    36   ar
    32    36    37   ar
    33    37    38    1
    34    38    39   ar
    35    39    40   ar
    36    40    41   ar
    37    41    42   ar
    38     6     7   ar
    39     7     8   ar
    40     8    44    1
    41    44    45    1
    42    44    46    1
    43     8     9   ar
    44    19    10    1
    45     9     1    1
    46    18    12    1
    47     9     4   ar
    48    29    24   ar
    49    37    32   ar
    50    42    38   ar
    51    42    43    1
    52    11    20    1
@<TRIPOS>MOLECULE
*****
 46 52 0 0 0
SMALL
GASTEIGER

@<TRIPOS>ATOM
      1 C         -27.0006   47.7549   -5.7467 C.3     1  UNL1        0.0814
      2 C         -26.6448   46.4626   -6.5147 C.3     1  UNL1        0.0252
      3 C         -25.5934   46.8429   -7.5720 C.3     1  UNL1        0.0278
      4 C         -25.4907   48.3196   -7.4707 C.ar    1  UNL1       -0.0251
      5 C         -24.7047   49.1399   -8.2778 C.ar    1  UNL1       -0.0046
      6 C         -24.6794   50.5221   -8.0278 C.ar    1  UNL1       -0.0005
      7 C         -25.4352   51.0511   -6.9613 C.ar    1  UNL1       -0.0046
      8 C         -26.1968   50.2095   -6.1217 C.ar    1  UNL1       -0.0255
      9 C         -26.2526   48.8371   -6.4485 C.ar    1  UNL1       -0.0156
     10 C         -29.3381   47.8744   -4.6702 C.3     1  UNL1        0.1158
     11 N         -30.6209   48.1615   -5.0026 N.3     1  UNL1       -0.2851
     12 C         -30.5394   48.4936   -6.2976 C.3     1  UNL1        0.0910
     13 C         -31.5835   48.8822   -7.1207 C.3     1  UNL1        0.1018
     14 C         -31.2722   49.2040   -8.4481 C.3     1  UNL1        0.3136
     15 N         -29.9758   49.1400   -8.9093 N.am    1  UNL1       -0.1293
     16 C         -28.9487   48.7578   -8.0710 C.2     1  UNL1        0.4047
     17 O         -27.7637   48.7261   -8.4952 O.2     1  UNL1       -0.2174
     18 C         -29.2541   48.4176   -6.7397 C.3     1  UNL1        0.2038
     19 N         -28.4611   48.0021   -5.7192 N.3     1  UNL1       -0.2473
     20 H         -30.9762   48.9402   -4.4478 H       1  UNL1        0.1244
     21 C         -29.5875   48.4534   -2.2461 C.3     1  UNL1        0.0029
     22 C         -28.9913   47.4814   -3.2581 C.3     1  UNL1        0.0326
     23 C         -29.6988   49.5208  -10.3055 C.3     1  UNL1        0.3404
     24 C         -29.8899   48.3346  -11.2276 C.ar    1  UNL1        0.0640
     25 C         -29.7085   47.0418  -10.7038 C.ar    1  UNL1        0.0031
     26 C         -29.8920   45.9149  -11.5079 C.ar    1  UNL1       -0.0001
     27 C         -30.2573   46.0621  -12.8456 C.ar    1  UNL1        0.0007
     28 C         -30.4375   47.3369  -13.3852 C.ar    1  UNL1        0.0102
     29 C         -30.2565   48.4773  -12.5892 C.ar    1  UNL1        0.0710
     30 C         -30.4437   49.7721  -13.1987 C.1     1  UNL1        0.1003
     31 N         -30.5934   50.8100  -13.6882 N.1     1  UNL1       -0.1908
     32 C         -23.8677   51.4174   -8.8836 C.ar    1  UNL1        0.0030
     33 C         -22.5046   51.5742   -8.5775 C.ar    1  UNL1        0.0001
     34 C         -21.6757   52.3412   -9.3966 C.ar    1  UNL1        0.0000
     35 C         -22.1951   52.9607  -10.5316 C.ar    1  UNL1        0.0001
     36 C         -23.5488   52.8274  -10.8457 C.ar    1  UNL1        0.0031
     37 C         -24.4052   52.0689  -10.0267 C.ar    1  UNL1        0.0371
     38 C         -25.8502   52.0206  -10.3590 C.ar    1  UNL1        0.1806
     39 N         -26.8302   52.5768   -9.6205 N.ar    1  UNL1       -0.1084
     40 N         -27.9496   52.3180  -10.2815 N.ar    1  UNL1       -0.0229
     41 N         -27.6759   51.6365  -11.3836 N.ar    1  UNL1       -0.0464
     42 N         -26.3715   51.4438  -11.4552 N.ar    1  UNL1       -0.2388
     43 H         -25.8797   50.9258  -12.2162 H       1  UNL1        0.1923
     44 C         -26.9069   50.7777   -4.9022 C.3     1  UNL1        0.0221
     45 C         -25.9315   51.5372   -3.9925 C.3     1  UNL1        0.0047
     46 C         -28.0838   51.6685   -5.3121 C.3     1  UNL1        0.0047
@<TRIPOS>BOND
     1    21    22    1
     2    22    10    1
     3    10    11    1
     4    11    12    1
     5    12    13    1
     6    13    14    1
     7    14    15    1
     8    15    23    1
     9    23    24    1
    10    24    25   ar
    11    25    26   ar
    12    26    27   ar
    13    27    28   ar
    14    28    29   ar
    15    29    30    1
    16    30    31    3
    17    15    16    1
    18    16    17    2
    19    16    18    1
    20    18    19    1
    21    19     1    1
    22     1     2    1
    23     2     3    1
    24     3     4    1
    25     4     5   ar
    26     5     6   ar
    27     6    32    1
    28    32    33   ar
    29    33    34   ar
    30    34    35   ar
    31    35    36   ar
    32    36    37   ar
    33    37    38    1
    34    38    39   ar
    35    39    40   ar
    36    40    41   ar
    37    41    42   ar
    38     6     7   ar
    39     7     8   ar
    40     8    44    1
    41    44    45    1
    42    44    46    1
    43     8     9   ar
    44    19    10    1
    45     9     1    1
    46    18    12    1
    47     9     4   ar
    48    29    24   ar
    49    37    32   ar
    50    42    38   ar
    51    42    43    1
    52    11    20    1
