@<TRIPOS>MOLECULE
*****
 46 52 0 0 0
SMALL
GASTEIGER

@<TRIPOS>ATOM
      1 C         -10.1753   -6.4948   31.0234 C.3     1  UNL1        0.1158
      2 N          -9.0300   -6.0166   31.5655 N.3     1  UNL1       -0.2851
      3 C          -8.2535   -7.1069   31.6723 C.3     1  UNL1        0.0907
      4 C          -6.9457   -7.1635   32.1539 C.3     1  UNL1        0.0937
      5 C          -6.3273   -8.4304   32.1511 C.3     1  UNL1        0.3133
      6 N          -6.9955   -9.5564   31.7231 N.am    1  UNL1       -0.1293
      7 C          -8.2778   -9.4635   31.2227 C.2     1  UNL1        0.4047
      8 O          -8.8618  -10.4833   30.7738 O.2     1  UNL1       -0.2174
      9 C          -8.9120   -8.2107   31.2154 C.3     1  UNL1        0.2038
     10 N         -10.1527   -7.8420   30.8020 N.3     1  UNL1       -0.2473
     11 H          -9.2052   -5.6028   32.4812 H       1  UNL1        0.1244
     12 C         -11.2480   -8.6464   30.2197 C.3     1  UNL1        0.0817
     13 C         -10.8780   -9.2642   28.8542 C.3     1  UNL1        0.0252
     14 C         -11.3693  -10.7255   28.8852 C.3     1  UNL1        0.0278
     15 C         -11.7242  -10.9553   30.3081 C.ar    1  UNL1       -0.0248
     16 C         -12.1013  -12.1671   30.8882 C.ar    1  UNL1       -0.0045
     17 C         -12.3773  -12.2063   32.2703 C.ar    1  UNL1       -0.0002
     18 C         -12.3087  -11.0153   33.0273 C.ar    1  UNL1       -0.0003
     19 C         -11.9330   -9.8084   32.4200 C.ar    1  UNL1       -0.0033
     20 C         -11.6261   -9.8098   31.0581 C.ar    1  UNL1       -0.0117
     21 C         -12.7713  -13.4787   32.9178 C.ar    1  UNL1        0.0030
     22 C         -13.9831  -14.0751   32.5266 C.ar    1  UNL1        0.0001
     23 C         -14.3695  -15.3099   33.0479 C.ar    1  UNL1        0.0000
     24 C         -13.5527  -15.9665   33.9658 C.ar    1  UNL1        0.0001
     25 C         -12.3520  -15.3856   34.3767 C.ar    1  UNL1        0.0031
     26 C         -11.9474  -14.1356   33.8724 C.ar    1  UNL1        0.0371
     27 C         -10.7018  -13.5253   34.4005 C.ar    1  UNL1        0.1806
     28 N          -9.9630  -12.6011   33.7570 N.ar    1  UNL1       -0.1084
     29 N          -8.9727  -12.3096   34.5882 N.ar    1  UNL1       -0.0229
     30 N          -9.0941  -13.0174   35.7007 N.ar    1  UNL1       -0.0464
     31 N         -10.1685  -13.7796   35.6078 N.ar    1  UNL1       -0.2388
     32 H         -10.4978  -14.4470   36.3396 H       1  UNL1        0.1923
     33 C          -6.2235   -5.9249   32.6514 C.3     1  UNL1        0.0081
     34 C          -6.4266   -4.7473   31.6914 C.3     1  UNL1        0.0003
     35 C          -4.7326   -6.2088   32.8690 C.3     1  UNL1        0.0003
     36 C         -10.9337   -4.4093   29.8857 C.3     1  UNL1        0.0029
     37 C         -11.3470   -5.5919   30.7558 C.3     1  UNL1        0.0326
     38 C          -6.2840  -10.8505   31.7551 C.3     1  UNL1        0.3404
     39 C          -5.2178  -10.9277   30.6801 C.ar    1  UNL1        0.0640
     40 C          -5.5362  -10.5321   29.3682 C.ar    1  UNL1        0.0031
     41 C          -4.5744  -10.5849   28.3568 C.ar    1  UNL1       -0.0001
     42 C          -3.2841  -11.0328   28.6405 C.ar    1  UNL1        0.0007
     43 C          -2.9502  -11.4281   29.9373 C.ar    1  UNL1        0.0102
     44 C          -3.9063  -11.3792   30.9615 C.ar    1  UNL1        0.0710
     45 C          -3.5130  -11.7820   32.2893 C.1     1  UNL1        0.1003
     46 N          -3.1909  -12.1075   33.3517 N.1     1  UNL1       -0.1908
@<TRIPOS>BOND
     1    36    37    1
     2    37     1    1
     3     1     2    1
     4     2     3    1
     5     3     4    1
     6     4    33    1
     7    33    34    1
     8    33    35    1
     9     4     5    1
    10     5     6    1
    11     6    38    1
    12    38    39    1
    13    39    40   ar
    14    40    41   ar
    15    41    42   ar
    16    42    43   ar
    17    43    44   ar
    18    44    45    1
    19    45    46    3
    20     6     7    1
    21     7     8    2
    22     7     9    1
    23     9    10    1
    24    10    12    1
    25    12    13    1
    26    13    14    1
    27    14    15    1
    28    15    16   ar
    29    16    17   ar
    30    17    21    1
    31    21    22   ar
    32    22    23   ar
    33    23    24   ar
    34    24    25   ar
    35    25    26   ar
    36    26    27    1
    37    27    28   ar
    38    28    29   ar
    39    29    30   ar
    40    30    31   ar
    41    17    18   ar
    42    18    19   ar
    43    19    20   ar
    44    10     1    1
    45    20    12    1
    46     9     3    1
    47    20    15   ar
    48    44    39   ar
    49    26    21   ar
    50    31    27   ar
    51    31    32    1
    52     2    11    1
@<TRIPOS>MOLECULE
*****
 46 52 0 0 0
SMALL
GASTEIGER

@<TRIPOS>ATOM
      1 C          -9.9367   -6.6133   30.9296 C.3     1  UNL1        0.1158
      2 N          -8.7104   -6.1234   31.2303 N.3     1  UNL1       -0.2851
      3 C          -7.8757   -7.0918   30.8198 C.3     1  UNL1        0.0907
      4 C          -6.4821   -7.0804   30.8771 C.3     1  UNL1        0.0937
      5 C          -5.8209   -8.2148   30.3637 C.3     1  UNL1        0.3133
      6 N          -6.5206   -9.2896   29.8613 N.am    1  UNL1       -0.1293
      7 C          -7.8980   -9.2583   29.7890 C.2     1  UNL1        0.4047
      8 O          -8.5306  -10.2146   29.2715 O.2     1  UNL1       -0.2174
      9 C          -8.5765   -8.1373   30.2938 C.3     1  UNL1        0.2038
     10 N          -9.9038   -7.8551   30.3628 N.3     1  UNL1       -0.2473
     11 H          -8.6178   -5.9635   32.2334 H       1  UNL1        0.1244
     12 C         -11.0758   -8.6426   29.9245 C.3     1  UNL1        0.0817
     13 C         -10.8582   -9.3342   28.5617 C.3     1  UNL1        0.0252
     14 C         -11.3929  -10.7730   28.7083 C.3     1  UNL1        0.0278
     15 C         -11.6184  -10.9256   30.1676 C.ar    1  UNL1       -0.0248
     16 C         -11.9790  -12.0953   30.8378 C.ar    1  UNL1       -0.0045
     17 C         -12.1235  -12.0625   32.2399 C.ar    1  UNL1       -0.0002
     18 C         -11.9435  -10.8423   32.9292 C.ar    1  UNL1       -0.0003
     19 C         -11.5870   -9.6788   32.2323 C.ar    1  UNL1       -0.0033
     20 C         -11.4112   -9.7524   30.8494 C.ar    1  UNL1       -0.0117
     21 C         -12.4965  -13.2890   32.9816 C.ar    1  UNL1        0.0030
     22 C         -13.6952  -13.9364   32.6335 C.ar    1  UNL1        0.0001
     23 C         -14.0606  -15.1349   33.2464 C.ar    1  UNL1        0.0000
     24 C         -13.2358  -15.7038   34.2143 C.ar    1  UNL1        0.0001
     25 C         -12.0481  -15.0705   34.5833 C.ar    1  UNL1        0.0031
     26 C         -11.6647  -13.8552   33.9861 C.ar    1  UNL1        0.0371
     27 C         -10.4331  -13.1828   34.4697 C.ar    1  UNL1        0.1806
     28 N          -9.7867  -13.4861   35.6118 N.ar    1  UNL1       -0.1084
     29 N          -8.7353  -12.6795   35.6391 N.ar    1  UNL1       -0.0229
     30 N          -8.7263  -11.9131   34.5593 N.ar    1  UNL1       -0.0464
     31 N          -9.7738  -12.2128   33.8131 N.ar    1  UNL1       -0.2388
     32 H         -10.0183  -11.7548   32.9077 H       1  UNL1        0.1923
     33 C          -5.7163   -5.9061   31.4581 C.3     1  UNL1        0.0081
     34 C          -4.2744   -6.3027   31.7949 C.3     1  UNL1        0.0003
     35 C          -6.4337   -5.3369   32.6878 C.3     1  UNL1        0.0003
     36 C         -11.2905   -4.5897   30.3897 C.3     1  UNL1        0.0029
     37 C         -11.1852   -5.8416   31.2547 C.3     1  UNL1        0.0326
     38 C          -5.7587  -10.4456   29.3464 C.3     1  UNL1        0.3404
     39 C          -4.8191  -11.0065   30.3957 C.ar    1  UNL1        0.0640
     40 C          -3.4728  -11.2368   30.0585 C.ar    1  UNL1        0.0031
     41 C          -2.5804  -11.7464   31.0044 C.ar    1  UNL1       -0.0001
     42 C          -3.0189  -12.0327   32.2973 C.ar    1  UNL1        0.0007
     43 C          -4.3512  -11.8091   32.6498 C.ar    1  UNL1        0.0102
     44 C          -5.2568  -11.2973   31.7097 C.ar    1  UNL1        0.0710
     45 C          -6.6195  -11.0672   32.1221 C.1     1  UNL1        0.1003
     46 N          -7.7117  -10.8873   32.4586 N.1     1  UNL1       -0.1908
@<TRIPOS>BOND
     1    36    37    1
     2    37     1    1
     3     1     2    1
     4     2     3    1
     5     3     4    1
     6     4    33    1
     7    33    34    1
     8    33    35    1
     9     4     5    1
    10     5     6    1
    11     6    38    1
    12    38    39    1
    13    39    40   ar
    14    40    41   ar
    15    41    42   ar
    16    42    43   ar
    17    43    44   ar
    18    44    45    1
    19    45    46    3
    20     6     7    1
    21     7     8    2
    22     7     9    1
    23     9    10    1
    24    10    12    1
    25    12    13    1
    26    13    14    1
    27    14    15    1
    28    15    16   ar
    29    16    17   ar
    30    17    21    1
    31    21    22   ar
    32    22    23   ar
    33    23    24   ar
    34    24    25   ar
    35    25    26   ar
    36    26    27    1
    37    27    28   ar
    38    28    29   ar
    39    29    30   ar
    40    30    31   ar
    41    17    18   ar
    42    18    19   ar
    43    19    20   ar
    44    10     1    1
    45    20    12    1
    46     9     3    1
    47    20    15   ar
    48    44    39   ar
    49    26    21   ar
    50    31    27   ar
    51    31    32    1
    52     2    11    1
