@<TRIPOS>MOLECULE
*****
 38 43 0 0 0
SMALL
GASTEIGER

@<TRIPOS>ATOM
      1 C         -26.2507   -6.0202  -14.3511 C.ar    1  UNL1        0.1095
      2 N         -26.9350   -4.8983  -14.6865 N.ar    1  UNL1       -0.1677
      3 N         -26.4773   -4.4659  -15.8528 N.ar    1  UNL1       -0.2319
      4 C         -27.0365   -3.3379  -16.5856 C.3     1  UNL1        0.1554
      5 C         -25.5296   -5.3138  -16.2771 C.ar    1  UNL1        0.1654
      6 N         -24.8848   -5.2716  -17.4667 N.ar    1  UNL1       -0.2050
      7 C         -23.9691   -6.2433  -17.7374 C.ar    1  UNL1        0.2014
      8 N         -23.6937   -7.2118  -16.8119 N.ar    1  UNL1       -0.2088
      9 C         -24.3303   -7.2688  -15.6023 C.ar    1  UNL1        0.1382
     10 C         -25.3183   -6.2989  -15.3535 C.ar    1  UNL1        0.0865
     11 C         -25.9933   -7.0346  -11.9916 C.ar    1  UNL1        0.0809
     12 C         -26.6468   -6.8424  -13.2014 C.ar    1  UNL1        0.0577
     13 C         -27.7554   -7.6627  -13.1497 C.ar    1  UNL1        0.1231
     14 N         -27.7829   -8.3002  -11.9646 N.ar    1  UNL1       -0.1676
     15 N         -26.7170   -7.9266  -11.2728 N.ar    1  UNL1       -0.2488
     16 C         -26.4156   -8.4608   -9.9483 C.3     1  UNL1        0.1537
     17 C         -20.9498   -4.7105  -10.3213 C.3     1  UNL1        0.0310
     18 C         -22.2330   -5.3273  -10.7922 C.ar    1  UNL1       -0.0218
     19 C         -23.1437   -4.5750  -11.5475 C.ar    1  UNL1       -0.0042
     20 C         -24.3587   -5.1359  -11.9499 C.ar    1  UNL1        0.0012
     21 C         -24.6924   -6.4507  -11.5845 C.ar    1  UNL1        0.0174
     22 C         -23.7838   -7.1955  -10.8162 C.ar    1  UNL1        0.0012
     23 C         -22.5650   -6.6377  -10.4206 C.ar    1  UNL1       -0.0042
     24 N         -23.8840   -8.2305  -14.6256 N.pl3   1  UNL1       -0.2841
     25 C         -24.7685   -9.2858  -14.1672 C.3     1  UNL1        0.0941
     26 C         -23.9354  -10.1402  -13.2316 C.3     1  UNL1        0.0397
     27 C         -22.4717   -9.9285  -13.6533 C.3     1  UNL1        0.0884
     28 C         -22.4833   -8.5377  -14.3375 C.3     1  UNL1        0.1883
     29 N         -21.5439   -9.9832  -12.4876 N.3     1  UNL1       -0.2719
     30 C         -20.9065   -8.6693  -12.2374 C.3     1  UNL1        0.0721
     31 C         -19.7476   -8.8159  -11.2341 C.3     1  UNL1        0.0174
     32 C         -19.9608   -9.9851  -10.2615 C.3     1  UNL1        0.0029
     33 C         -21.4468  -10.1732   -9.9622 C.3     1  UNL1        0.0174
     34 C         -22.2487  -10.4371  -11.2564 C.3     1  UNL1        0.0721
     35 C         -21.6571   -8.5323  -15.5972 C.2     1  UNL1        0.3334
     36 O         -20.6575   -7.7712  -15.6927 O.2     1  UNL1       -0.2484
     37 O         -22.0037   -9.3588  -16.6623 O.3     1  UNL1       -0.4790
     38 H         -21.4604   -9.3593  -17.5171 H       1  UNL1        0.2951
@<TRIPOS>BOND
     1    17    18    1
     2    18    19   ar
     3    19    20   ar
     4    20    21   ar
     5    21    11    1
     6    11    12   ar
     7    12     1    1
     8     1     2   ar
     9     2     3   ar
    10     3     4    1
    11     3     5   ar
    12     5     6   ar
    13     6     7   ar
    14     7     8   ar
    15     8     9   ar
    16     9    24    1
    17    24    25    1
    18    25    26    1
    19    26    27    1
    20    27    29    1
    21    29    30    1
    22    30    31    1
    23    31    32    1
    24    32    33    1
    25    33    34    1
    26    27    28    1
    27    28    35    1
    28    35    36    2
    29    35    37    1
    30     9    10   ar
    31    12    13   ar
    32    13    14   ar
    33    14    15   ar
    34    15    16    1
    35    21    22   ar
    36    22    23   ar
    37    23    18   ar
    38    15    11   ar
    39    10     1   ar
    40    10     5   ar
    41    28    24    1
    42    34    29    1
    43    37    38    1
@<TRIPOS>MOLECULE
*****
 38 43 0 0 0
SMALL
GASTEIGER

@<TRIPOS>ATOM
      1 C         -20.2376  -10.2679  -11.0765 C.ar    1  UNL1        0.1095
      2 N         -19.3726  -10.7847  -10.1687 N.ar    1  UNL1       -0.1677
      3 N         -19.2008  -12.0699  -10.4437 N.ar    1  UNL1       -0.2319
      4 C         -18.2634  -12.9394   -9.7455 C.3     1  UNL1        0.1554
      5 C         -19.9240  -12.3711  -11.5315 C.ar    1  UNL1        0.1654
      6 N         -19.9439  -13.5579  -12.1825 N.ar    1  UNL1       -0.2050
      7 C         -20.7211  -13.6684  -13.2959 C.ar    1  UNL1        0.2014
      8 N         -21.4810  -12.6122  -13.7170 N.ar    1  UNL1       -0.2088
      9 C         -21.4789  -11.4066  -13.0703 C.ar    1  UNL1        0.1382
     10 C         -20.6281  -11.2796  -11.9573 C.ar    1  UNL1        0.0865
     11 C         -21.6072   -8.1060  -10.7407 C.ar    1  UNL1        0.0809
     12 C         -20.4932   -8.8245  -11.1535 C.ar    1  UNL1        0.0577
     13 C         -19.6602   -7.8958  -11.7436 C.ar    1  UNL1        0.1231
     14 N         -20.2294   -6.6782  -11.6724 N.ar    1  UNL1       -0.1676
     15 N         -21.4046   -6.8087  -11.0756 N.ar    1  UNL1       -0.2488
     16 C         -22.3081   -5.6812  -10.8688 C.3     1  UNL1        0.1537
     17 C         -26.4440  -10.3178   -8.4295 C.3     1  UNL1        0.0310
     18 C         -25.1900   -9.7166   -8.9905 C.ar    1  UNL1       -0.0218
     19 C         -25.2612   -8.6405   -9.8865 C.ar    1  UNL1       -0.0042
     20 C         -24.0952   -8.1078  -10.4427 C.ar    1  UNL1        0.0012
     21 C         -22.8407   -8.6571  -10.1293 C.ar    1  UNL1        0.0174
     22 C         -22.7752   -9.7435   -9.2427 C.ar    1  UNL1        0.0012
     23 C         -23.9404  -10.2711   -8.6798 C.ar    1  UNL1       -0.0042
     24 N         -22.4127  -10.3910  -13.4882 N.pl3   1  UNL1       -0.2841
     25 C         -22.2556   -9.7209  -14.7658 C.3     1  UNL1        0.0941
     26 C         -23.4553   -8.8028  -14.8964 C.3     1  UNL1        0.0397
     27 C         -24.5558   -9.4137  -14.0127 C.3     1  UNL1        0.0884
     28 C         -23.7687  -10.2377  -12.9619 C.3     1  UNL1        0.1883
     29 N         -25.4140   -8.3658  -13.3896 N.3     1  UNL1       -0.2719
     30 C         -25.1095   -7.0206  -13.9306 C.3     1  UNL1        0.0721
     31 C         -25.7853   -5.9318  -13.0768 C.3     1  UNL1        0.0174
     32 C         -27.0716   -6.4317  -12.4030 C.3     1  UNL1        0.0029
     33 C         -27.7782   -7.4588  -13.2856 C.3     1  UNL1        0.0174
     34 C         -26.8601   -8.6651  -13.5844 C.3     1  UNL1        0.0721
     35 C         -24.4092  -11.5788  -12.7157 C.2     1  UNL1        0.3334
     36 O         -24.8486  -11.8673  -11.5706 O.2     1  UNL1       -0.2484
     37 O         -24.5056  -12.5062  -13.7492 O.3     1  UNL1       -0.4790
     38 H         -24.9278  -13.4138  -13.5947 H       1  UNL1        0.2951
@<TRIPOS>BOND
     1    17    18    1
     2    18    19   ar
     3    19    20   ar
     4    20    21   ar
     5    21    11    1
     6    11    12   ar
     7    12     1    1
     8     1     2   ar
     9     2     3   ar
    10     3     4    1
    11     3     5   ar
    12     5     6   ar
    13     6     7   ar
    14     7     8   ar
    15     8     9   ar
    16     9    24    1
    17    24    25    1
    18    25    26    1
    19    26    27    1
    20    27    29    1
    21    29    30    1
    22    30    31    1
    23    31    32    1
    24    32    33    1
    25    33    34    1
    26    27    28    1
    27    28    35    1
    28    35    36    2
    29    35    37    1
    30     9    10   ar
    31    12    13   ar
    32    13    14   ar
    33    14    15   ar
    34    15    16    1
    35    21    22   ar
    36    22    23   ar
    37    23    18   ar
    38    15    11   ar
    39    10     1   ar
    40    10     5   ar
    41    28    24    1
    42    34    29    1
    43    37    38    1
@<TRIPOS>MOLECULE
*****
 38 43 0 0 0
SMALL
GASTEIGER

@<TRIPOS>ATOM
      1 C         -20.2568  -10.1343  -10.9868 C.ar    1  UNL1        0.1095
      2 N         -19.3422  -10.6406  -10.1228 N.ar    1  UNL1       -0.1677
      3 N         -19.1740  -11.9254  -10.4020 N.ar    1  UNL1       -0.2319
      4 C         -18.1950  -12.7846   -9.7500 C.3     1  UNL1        0.1554
      5 C         -19.9494  -12.2364  -11.4505 C.ar    1  UNL1        0.1654
      6 N         -19.9926  -13.4257  -12.0957 N.ar    1  UNL1       -0.2050
      7 C         -20.8249  -13.5467  -13.1676 C.ar    1  UNL1        0.2014
      8 N         -21.6141  -12.4982  -13.5526 N.ar    1  UNL1       -0.2088
      9 C         -21.5889  -11.2903  -12.9108 C.ar    1  UNL1        0.1382
     10 C         -20.6833  -11.1523  -11.8433 C.ar    1  UNL1        0.0865
     11 C         -20.7291   -7.7867  -10.0231 C.ar    1  UNL1        0.0809
     12 C         -20.5280   -8.6933  -11.0553 C.ar    1  UNL1        0.0577
     13 C         -20.7101   -7.9687  -12.2157 C.ar    1  UNL1        0.1231
     14 N         -20.9850   -6.6887  -11.9030 N.ar    1  UNL1       -0.1676
     15 N         -21.0038   -6.5837  -10.5829 N.ar    1  UNL1       -0.2488
     16 C         -21.3110   -5.3304   -9.9007 C.3     1  UNL1        0.1537
     17 C         -20.7429   -9.0481   -4.3630 C.3     1  UNL1        0.0310
     18 C         -20.7533   -8.6783   -5.8162 C.ar    1  UNL1       -0.0218
     19 C         -21.8995   -8.8976   -6.5934 C.ar    1  UNL1       -0.0042
     20 C         -21.8956   -8.5930   -7.9572 C.ar    1  UNL1        0.0012
     21 C         -20.7381   -8.0853   -8.5706 C.ar    1  UNL1        0.0174
     22 C         -19.5884   -7.8806   -7.7916 C.ar    1  UNL1        0.0012
     23 C         -19.5947   -8.1772   -6.4260 C.ar    1  UNL1       -0.0042
     24 N         -22.5512  -10.2838  -13.2836 N.pl3   1  UNL1       -0.2841
     25 C         -22.7282   -9.9071  -14.6739 C.3     1  UNL1        0.0941
     26 C         -23.8691   -8.9084  -14.6850 C.3     1  UNL1        0.0397
     27 C         -24.7042   -9.2035  -13.4278 C.3     1  UNL1        0.0884
     28 C         -23.6943   -9.8795  -12.4656 C.3     1  UNL1        0.1883
     29 N         -25.2987   -7.9636  -12.8516 N.3     1  UNL1       -0.2719
     30 C         -24.3441   -6.8314  -12.8950 C.3     1  UNL1        0.0721
     31 C         -24.8606   -5.6592  -12.0404 C.3     1  UNL1        0.0174
     32 C         -26.3939   -5.6252  -11.9603 C.3     1  UNL1        0.0029
     33 C         -27.0129   -6.1416  -13.2578 C.3     1  UNL1        0.0174
     34 C         -26.5525   -7.5850  -13.5611 C.3     1  UNL1        0.0721
     35 C         -24.3048  -11.0646  -11.7640 C.2     1  UNL1        0.3334
     36 O         -24.6675  -10.9675  -10.5612 O.2     1  UNL1       -0.2484
     37 O         -24.4579  -12.2722  -12.4390 O.3     1  UNL1       -0.4790
     38 H         -24.8606  -13.0782  -11.9764 H       1  UNL1        0.2951
@<TRIPOS>BOND
     1    17    18    1
     2    18    19   ar
     3    19    20   ar
     4    20    21   ar
     5    21    11    1
     6    11    12   ar
     7    12     1    1
     8     1     2   ar
     9     2     3   ar
    10     3     4    1
    11     3     5   ar
    12     5     6   ar
    13     6     7   ar
    14     7     8   ar
    15     8     9   ar
    16     9    24    1
    17    24    25    1
    18    25    26    1
    19    26    27    1
    20    27    29    1
    21    29    30    1
    22    30    31    1
    23    31    32    1
    24    32    33    1
    25    33    34    1
    26    27    28    1
    27    28    35    1
    28    35    36    2
    29    35    37    1
    30     9    10   ar
    31    12    13   ar
    32    13    14   ar
    33    14    15   ar
    34    15    16    1
    35    21    22   ar
    36    22    23   ar
    37    23    18   ar
    38    15    11   ar
    39    10     1   ar
    40    10     5   ar
    41    28    24    1
    42    34    29    1
    43    37    38    1
@<TRIPOS>MOLECULE
*****
 38 43 0 0 0
SMALL
GASTEIGER

@<TRIPOS>ATOM
      1 C         -21.7800   -7.1765  -11.9900 C.ar    1  UNL1        0.1095
      2 N         -21.8738   -5.8784  -11.6086 N.ar    1  UNL1       -0.1677
      3 N         -21.6880   -5.8164  -10.2977 N.ar    1  UNL1       -0.2319
      4 C         -21.6179   -4.5757   -9.5375 C.3     1  UNL1        0.1554
      5 C         -21.4498   -7.0552   -9.8442 C.ar    1  UNL1        0.1654
      6 N         -21.1207   -7.3998   -8.5771 N.ar    1  UNL1       -0.2050
      7 C         -20.8827   -8.7141   -8.3085 C.ar    1  UNL1        0.2014
      8 N         -21.0071   -9.6551   -9.2931 N.ar    1  UNL1       -0.2088
      9 C         -21.3437   -9.3280  -10.5782 C.ar    1  UNL1        0.1382
     10 C         -21.5283   -7.9629  -10.8631 C.ar    1  UNL1        0.0865
     11 C         -22.8200   -7.8035  -14.2677 C.ar    1  UNL1        0.0809
     12 C         -21.7584   -7.5572  -13.4075 C.ar    1  UNL1        0.0577
     13 C         -20.6232   -7.8189  -14.1474 C.ar    1  UNL1        0.1231
     14 N         -20.9779   -8.1828  -15.3938 N.ar    1  UNL1       -0.1676
     15 N         -22.3007   -8.1806  -15.4612 N.ar    1  UNL1       -0.2488
     16 C         -23.0245   -8.5665  -16.6684 C.3     1  UNL1        0.1537
     17 C         -28.4423   -7.6537  -12.8548 C.3     1  UNL1        0.0310
     18 C         -27.0000   -7.6830  -13.2648 C.ar    1  UNL1       -0.0218
     19 C         -26.3968   -8.8910  -13.6424 C.ar    1  UNL1       -0.0042
     20 C         -25.0420   -8.9262  -13.9831 C.ar    1  UNL1        0.0012
     21 C         -24.2633   -7.7582  -13.9300 C.ar    1  UNL1        0.0174
     22 C         -24.8680   -6.5537  -13.5377 C.ar    1  UNL1        0.0012
     23 C         -26.2248   -6.5165  -13.2049 C.ar    1  UNL1       -0.0042
     24 N         -21.5955  -10.3874  -11.5228 N.pl3   1  UNL1       -0.2841
     25 C         -20.7133  -11.5372  -11.5991 C.3     1  UNL1        0.0941
     26 C         -21.3386  -12.4655  -12.6220 C.3     1  UNL1        0.0397
     27 C         -22.8386  -12.1268  -12.6420 C.3     1  UNL1        0.0884
     28 C         -22.8912  -10.6597  -12.1444 C.3     1  UNL1        0.1883
     29 N         -23.4272  -12.2894  -14.0021 N.3     1  UNL1       -0.2719
     30 C         -22.3873  -12.5958  -15.0119 C.3     1  UNL1        0.0721
     31 C         -22.9641  -12.4681  -16.4339 C.3     1  UNL1        0.0174
     32 C         -24.4710  -12.7608  -16.4820 C.3     1  UNL1        0.0029
     33 C         -24.8487  -13.8147  -15.4429 C.3     1  UNL1        0.0174
     34 C         -24.4660  -13.3568  -14.0176 C.3     1  UNL1        0.0721
     35 C         -24.0171  -10.4457  -11.1666 C.2     1  UNL1        0.3334
     36 O         -24.6327  -11.4350  -10.6871 O.2     1  UNL1       -0.2484
     37 O         -24.3873   -9.1548  -10.8006 O.3     1  UNL1       -0.4790
     38 H         -25.1471   -8.9975  -10.1495 H       1  UNL1        0.2951
@<TRIPOS>BOND
     1    17    18    1
     2    18    19   ar
     3    19    20   ar
     4    20    21   ar
     5    21    11    1
     6    11    12   ar
     7    12     1    1
     8     1     2   ar
     9     2     3   ar
    10     3     4    1
    11     3     5   ar
    12     5     6   ar
    13     6     7   ar
    14     7     8   ar
    15     8     9   ar
    16     9    24    1
    17    24    25    1
    18    25    26    1
    19    26    27    1
    20    27    29    1
    21    29    30    1
    22    30    31    1
    23    31    32    1
    24    32    33    1
    25    33    34    1
    26    27    28    1
    27    28    35    1
    28    35    36    2
    29    35    37    1
    30     9    10   ar
    31    12    13   ar
    32    13    14   ar
    33    14    15   ar
    34    15    16    1
    35    21    22   ar
    36    22    23   ar
    37    23    18   ar
    38    15    11   ar
    39    10     1   ar
    40    10     5   ar
    41    28    24    1
    42    34    29    1
    43    37    38    1
@<TRIPOS>MOLECULE
*****
 38 43 0 0 0
SMALL
GASTEIGER

@<TRIPOS>ATOM
      1 C         -22.1119   -8.5501  -12.6809 C.ar    1  UNL1        0.1095
      2 N         -20.8799   -8.7537  -12.1517 N.ar    1  UNL1       -0.1677
      3 N         -21.0114   -8.9119  -10.8423 N.ar    1  UNL1       -0.2319
      4 C         -19.9162   -9.2504   -9.9434 C.3     1  UNL1        0.1554
      5 C         -22.3143   -8.8390  -10.5352 C.ar    1  UNL1        0.1654
      6 N         -22.8672   -9.0419   -9.3163 N.ar    1  UNL1       -0.2050
      7 C         -24.2221   -8.9562   -9.2017 C.ar    1  UNL1        0.2014
      8 N         -24.9900   -8.6418  -10.2888 N.ar    1  UNL1       -0.2088
      9 C         -24.4502   -8.4280  -11.5276 C.ar    1  UNL1        0.1382
     10 C         -23.0571   -8.5779  -11.6525 C.ar    1  UNL1        0.0865
     11 C         -23.0382   -9.4033  -14.9340 C.ar    1  UNL1        0.0809
     12 C         -22.3251   -8.5216  -14.1329 C.ar    1  UNL1        0.0577
     13 C         -21.7668   -7.6090  -15.0048 C.ar    1  UNL1        0.1231
     14 N         -22.1395   -7.9094  -16.2629 N.ar    1  UNL1       -0.1676
     15 N         -22.8979   -8.9943  -16.2182 N.ar    1  UNL1       -0.2488
     16 C         -23.4442   -9.6185  -17.4192 C.3     1  UNL1        0.1537
     17 C         -25.8472  -14.1401  -13.1171 C.3     1  UNL1        0.0310
     18 C         -25.1053  -12.9395  -13.6241 C.ar    1  UNL1       -0.0218
     19 C         -23.7935  -12.6871  -13.1983 C.ar    1  UNL1       -0.0042
     20 C         -23.1171  -11.5457  -13.6368 C.ar    1  UNL1        0.0012
     21 C         -23.7496  -10.6265  -14.4905 C.ar    1  UNL1        0.0174
     22 C         -25.0680  -10.8759  -14.9030 C.ar    1  UNL1        0.0012
     23 C         -25.7418  -12.0215  -14.4713 C.ar    1  UNL1       -0.0042
     24 N         -25.3066   -7.9606  -12.5887 N.pl3   1  UNL1       -0.2841
     25 C         -26.6031   -8.5713  -12.8176 C.3     1  UNL1        0.0941
     26 C         -27.2418   -7.7690  -13.9345 C.3     1  UNL1        0.0397
     27 C         -26.5843   -6.3794  -13.8889 C.3     1  UNL1        0.0884
     28 C         -25.2125   -6.6433  -13.2172 C.3     1  UNL1        0.1883
     29 N         -26.4485   -5.7836  -15.2488 N.3     1  UNL1       -0.2719
     30 C         -26.5102   -4.3040  -15.2033 C.3     1  UNL1        0.0721
     31 C         -26.6647   -3.7282  -16.6231 C.3     1  UNL1        0.0174
     32 C         -26.0387   -4.6348  -17.6929 C.3     1  UNL1        0.0029
     33 C         -24.8129   -5.3573  -17.1372 C.3     1  UNL1        0.0174
     34 C         -25.1788   -6.2091  -15.9011 C.3     1  UNL1        0.0721
     35 C         -24.8784   -5.5813  -12.2023 C.2     1  UNL1        0.3334
     36 O         -25.7984   -4.8991  -11.6769 O.2     1  UNL1       -0.2484
     37 O         -23.5524   -5.3432  -11.8524 O.3     1  UNL1       -0.4790
     38 H         -23.3143   -4.6273  -11.1765 H       1  UNL1        0.2951
@<TRIPOS>BOND
     1    17    18    1
     2    18    19   ar
     3    19    20   ar
     4    20    21   ar
     5    21    11    1
     6    11    12   ar
     7    12     1    1
     8     1     2   ar
     9     2     3   ar
    10     3     4    1
    11     3     5   ar
    12     5     6   ar
    13     6     7   ar
    14     7     8   ar
    15     8     9   ar
    16     9    24    1
    17    24    25    1
    18    25    26    1
    19    26    27    1
    20    27    29    1
    21    29    30    1
    22    30    31    1
    23    31    32    1
    24    32    33    1
    25    33    34    1
    26    27    28    1
    27    28    35    1
    28    35    36    2
    29    35    37    1
    30     9    10   ar
    31    12    13   ar
    32    13    14   ar
    33    14    15   ar
    34    15    16    1
    35    21    22   ar
    36    22    23   ar
    37    23    18   ar
    38    15    11   ar
    39    10     1   ar
    40    10     5   ar
    41    28    24    1
    42    34    29    1
    43    37    38    1
@<TRIPOS>MOLECULE
*****
 38 43 0 0 0
SMALL
GASTEIGER

@<TRIPOS>ATOM
      1 C         -20.3876   -7.5616   -8.7157 C.ar    1  UNL1        0.1095
      2 N         -20.0314   -7.2021   -7.4574 N.ar    1  UNL1       -0.1677
      3 N         -19.1749   -8.1020   -6.9953 N.ar    1  UNL1       -0.2319
      4 C         -18.4932   -8.0014   -5.7118 C.3     1  UNL1        0.1554
      5 C         -18.9604   -9.0145   -7.9536 C.ar    1  UNL1        0.1654
      6 N         -18.0810  -10.0426   -7.9047 N.ar    1  UNL1       -0.2050
      7 C         -17.9778  -10.8538   -8.9944 C.ar    1  UNL1        0.2014
      8 N         -18.7691  -10.6447  -10.0901 N.ar    1  UNL1       -0.2088
      9 C         -19.6673   -9.6150  -10.1571 C.ar    1  UNL1        0.1382
     10 C         -19.7257   -8.7447   -9.0535 C.ar    1  UNL1        0.0865
     11 C         -22.4844   -6.8304  -10.0316 C.ar    1  UNL1        0.0809
     12 C         -21.1852   -6.6718   -9.5682 C.ar    1  UNL1        0.0577
     13 C         -20.7348   -5.5010  -10.1435 C.ar    1  UNL1        0.1231
     14 N         -21.7153   -4.9688  -10.8966 N.ar    1  UNL1       -0.1676
     15 N         -22.7643   -5.7750  -10.8340 N.ar    1  UNL1       -0.2488
     16 C         -23.9973   -5.5153  -11.5707 C.3     1  UNL1        0.1537
     17 C         -25.9409  -11.3956   -9.1152 C.3     1  UNL1        0.0310
     18 C         -25.0729  -10.1903   -9.3217 C.ar    1  UNL1       -0.0218
     19 C         -25.3567   -9.2828  -10.3521 C.ar    1  UNL1       -0.0042
     20 C         -24.5235   -8.1827  -10.5720 C.ar    1  UNL1        0.0012
     21 C         -23.3805   -7.9848   -9.7795 C.ar    1  UNL1        0.0174
     22 C         -23.0924   -8.9036   -8.7581 C.ar    1  UNL1        0.0012
     23 C         -23.9300   -9.9993   -8.5325 C.ar    1  UNL1       -0.0042
     24 N         -20.5647   -9.5463  -11.2832 N.pl3   1  UNL1       -0.2841
     25 C         -20.3867   -8.5383  -12.3119 C.3     1  UNL1        0.0941
     26 C         -21.4422   -8.8325  -13.3600 C.3     1  UNL1        0.0397
     27 C         -21.7759  -10.3271  -13.2188 C.3     1  UNL1        0.0884
     28 C         -21.4040  -10.6499  -11.7491 C.3     1  UNL1        0.1883
     29 N         -23.2090  -10.6075  -13.5194 N.3     1  UNL1       -0.2719
     30 C         -23.9310   -9.3783  -13.9226 C.3     1  UNL1        0.0721
     31 C         -25.4504   -9.6282  -13.9406 C.3     1  UNL1        0.0174
     32 C         -25.7982  -11.0935  -14.2415 C.3     1  UNL1        0.0029
     33 C         -24.7680  -11.7089  -15.1866 C.3     1  UNL1        0.0174
     34 C         -23.3460  -11.6380  -14.5862 C.3     1  UNL1        0.0721
     35 C         -20.6800  -11.9662  -11.6365 C.2     1  UNL1        0.3334
     36 O         -20.2709  -12.5520  -12.6743 O.2     1  UNL1       -0.2484
     37 O         -20.4727  -12.5437  -10.3871 O.3     1  UNL1       -0.4790
     38 H         -19.9935  -13.4317  -10.2986 H       1  UNL1        0.2951
@<TRIPOS>BOND
     1    17    18    1
     2    18    19   ar
     3    19    20   ar
     4    20    21   ar
     5    21    11    1
     6    11    12   ar
     7    12     1    1
     8     1     2   ar
     9     2     3   ar
    10     3     4    1
    11     3     5   ar
    12     5     6   ar
    13     6     7   ar
    14     7     8   ar
    15     8     9   ar
    16     9    24    1
    17    24    25    1
    18    25    26    1
    19    26    27    1
    20    27    29    1
    21    29    30    1
    22    30    31    1
    23    31    32    1
    24    32    33    1
    25    33    34    1
    26    27    28    1
    27    28    35    1
    28    35    36    2
    29    35    37    1
    30     9    10   ar
    31    12    13   ar
    32    13    14   ar
    33    14    15   ar
    34    15    16    1
    35    21    22   ar
    36    22    23   ar
    37    23    18   ar
    38    15    11   ar
    39    10     1   ar
    40    10     5   ar
    41    28    24    1
    42    34    29    1
    43    37    38    1
@<TRIPOS>MOLECULE
*****
 38 43 0 0 0
SMALL
GASTEIGER

@<TRIPOS>ATOM
      1 C         -25.3238   -8.2655  -13.4285 C.ar    1  UNL1        0.1095
      2 N         -26.4875   -8.1906  -14.1210 N.ar    1  UNL1       -0.1677
      3 N         -27.4801   -8.0612  -13.2520 N.ar    1  UNL1       -0.2319
      4 C         -28.8728   -7.8508  -13.6238 C.3     1  UNL1        0.1554
      5 C         -26.9603   -8.0250  -12.0169 C.ar    1  UNL1        0.1654
      6 N         -27.6367   -7.8100  -10.8642 N.ar    1  UNL1       -0.2050
      7 C         -26.9301   -7.7760   -9.6998 C.ar    1  UNL1        0.2014
      8 N         -25.5788   -7.9864   -9.7041 N.ar    1  UNL1       -0.2088
      9 C         -24.8777   -8.2103  -10.8574 C.ar    1  UNL1        0.1382
     10 C         -25.6034   -8.1836  -12.0621 C.ar    1  UNL1        0.0865
     11 C         -23.3389   -9.2553  -14.7488 C.ar    1  UNL1        0.0809
     12 C         -24.0245   -8.2303  -14.1107 C.ar    1  UNL1        0.0577
     13 C         -23.1860   -7.1362  -14.1769 C.ar    1  UNL1        0.1231
     14 N         -22.0634   -7.4747  -14.8380 N.ar    1  UNL1       -0.1676
     15 N         -22.1545   -8.7526  -15.1739 N.ar    1  UNL1       -0.2488
     16 C         -21.0847   -9.4572  -15.8735 C.3     1  UNL1        0.1537
     17 C         -24.9328  -14.8083  -15.2509 C.3     1  UNL1        0.0310
     18 C         -24.5646  -13.3616  -15.1082 C.ar    1  UNL1       -0.0218
     19 C         -24.6409  -12.5004  -16.2120 C.ar    1  UNL1       -0.0042
     20 C         -24.2570  -11.1623  -16.0901 C.ar    1  UNL1        0.0012
     21 C         -23.7693  -10.6694  -14.8684 C.ar    1  UNL1        0.0174
     22 C         -23.6813  -11.5385  -13.7696 C.ar    1  UNL1        0.0012
     23 C         -24.0730  -12.8747  -13.8889 C.ar    1  UNL1       -0.0042
     24 N         -23.4836   -8.5656  -10.7665 N.pl3   1  UNL1       -0.2841
     25 C         -22.4512   -7.6138  -11.1330 C.3     1  UNL1        0.0941
     26 C         -21.1345   -8.2990  -10.8233 C.3     1  UNL1        0.0397
     27 C         -21.4441   -9.3430   -9.7373 C.3     1  UNL1        0.0884
     28 C         -22.9509   -9.6465   -9.9376 C.3     1  UNL1        0.1883
     29 N         -20.5936  -10.5594   -9.8769 N.3     1  UNL1       -0.2719
     30 C         -20.6524  -11.1096  -11.2512 C.3     1  UNL1        0.0721
     31 C         -20.0150  -12.5107  -11.2975 C.3     1  UNL1        0.0174
     32 C         -18.9241  -12.6922  -10.2319 C.3     1  UNL1        0.0029
     33 C         -18.1958  -11.3740   -9.9763 C.3     1  UNL1        0.0174
     34 C         -19.1772  -10.2733   -9.5153 C.3     1  UNL1        0.0721
     35 C         -23.6796   -9.7298   -8.6217 C.2     1  UNL1        0.3334
     36 O         -24.3974  -10.7318   -8.3605 O.2     1  UNL1       -0.2484
     37 O         -23.5713   -8.6946   -7.6975 O.3     1  UNL1       -0.4790
     38 H         -24.0618   -8.7355   -6.8123 H       1  UNL1        0.2951
@<TRIPOS>BOND
     1    17    18    1
     2    18    19   ar
     3    19    20   ar
     4    20    21   ar
     5    21    11    1
     6    11    12   ar
     7    12     1    1
     8     1     2   ar
     9     2     3   ar
    10     3     4    1
    11     3     5   ar
    12     5     6   ar
    13     6     7   ar
    14     7     8   ar
    15     8     9   ar
    16     9    24    1
    17    24    25    1
    18    25    26    1
    19    26    27    1
    20    27    29    1
    21    29    30    1
    22    30    31    1
    23    31    32    1
    24    32    33    1
    25    33    34    1
    26    27    28    1
    27    28    35    1
    28    35    36    2
    29    35    37    1
    30     9    10   ar
    31    12    13   ar
    32    13    14   ar
    33    14    15   ar
    34    15    16    1
    35    21    22   ar
    36    22    23   ar
    37    23    18   ar
    38    15    11   ar
    39    10     1   ar
    40    10     5   ar
    41    28    24    1
    42    34    29    1
    43    37    38    1
@<TRIPOS>MOLECULE
*****
 38 43 0 0 0
SMALL
GASTEIGER

@<TRIPOS>ATOM
      1 C         -22.9177   -9.0564  -14.6840 C.ar    1  UNL1        0.1095
      2 N         -22.7523   -8.9395  -16.0250 N.ar    1  UNL1       -0.1677
      3 N         -23.2683  -10.0153  -16.6023 N.ar    1  UNL1       -0.2319
      4 C         -23.3675  -10.2044  -18.0433 C.3     1  UNL1        0.1554
      5 C         -23.7845  -10.8024  -15.6478 C.ar    1  UNL1        0.1654
      6 N         -24.4810  -11.9476  -15.8373 N.ar    1  UNL1       -0.2050
      7 C         -24.9583  -12.5998  -14.7405 C.ar    1  UNL1        0.2014
      8 N         -24.7070  -12.1184  -13.4854 N.ar    1  UNL1       -0.2088
      9 C         -24.0010  -10.9660  -13.2725 C.ar    1  UNL1        0.1382
     10 C         -23.5634  -10.2648  -14.4106 C.ar    1  UNL1        0.0865
     11 C         -23.4770   -7.0203  -13.1994 C.ar    1  UNL1        0.0809
     12 C         -22.6150   -7.9432  -13.7764 C.ar    1  UNL1        0.0577
     13 C         -21.3511   -7.5587  -13.3771 C.ar    1  UNL1        0.1231
     14 N         -21.4449   -6.4751  -12.5841 N.ar    1  UNL1       -0.1676
     15 N         -22.7247   -6.1483  -12.4854 N.ar    1  UNL1       -0.2488
     16 C         -23.1811   -4.9891  -11.7250 C.3     1  UNL1        0.1537
     17 C         -29.2077   -6.7474  -14.0440 C.3     1  UNL1        0.0310
     18 C         -27.7300   -6.7860  -13.7914 C.ar    1  UNL1       -0.0218
     19 C         -26.8672   -5.9494  -14.5135 C.ar    1  UNL1       -0.0042
     20 C         -25.4864   -6.0155  -14.3092 C.ar    1  UNL1        0.0012
     21 C         -24.9444   -6.9350  -13.3957 C.ar    1  UNL1        0.0174
     22 C         -25.8109   -7.7804  -12.6852 C.ar    1  UNL1        0.0012
     23 C         -27.1925   -7.7088  -12.8832 C.ar    1  UNL1       -0.0042
     24 N         -23.6548  -10.6015  -11.9214 N.pl3   1  UNL1       -0.2841
     25 C         -24.6133  -10.7581  -10.8431 C.3     1  UNL1        0.0941
     26 C         -23.8739  -10.3670   -9.5784 C.3     1  UNL1        0.0397
     27 C         -22.3813  -10.5939   -9.8717 C.3     1  UNL1        0.0884
     28 C         -22.2881  -10.4802  -11.4147 C.3     1  UNL1        0.1883
     29 N         -21.5198   -9.5977   -9.1731 N.3     1  UNL1       -0.2719
     30 C         -20.1062   -9.7038   -9.6040 C.3     1  UNL1        0.0721
     31 C         -19.1964   -8.8834   -8.6710 C.3     1  UNL1        0.0174
     32 C         -19.9271   -7.6853   -8.0471 C.3     1  UNL1        0.0029
     33 C         -20.9715   -7.1286   -9.0127 C.3     1  UNL1        0.0174
     34 C         -22.0065   -8.2084   -9.4002 C.3     1  UNL1        0.0721
     35 C         -21.3977  -11.5471  -11.9966 C.2     1  UNL1        0.3334
     36 O         -21.1624  -11.5663  -13.2343 O.2     1  UNL1       -0.2484
     37 O         -20.8435  -12.5204  -11.1703 O.3     1  UNL1       -0.4790
     38 H         -20.2489  -13.2470  -11.5503 H       1  UNL1        0.2951
@<TRIPOS>BOND
     1    17    18    1
     2    18    19   ar
     3    19    20   ar
     4    20    21   ar
     5    21    11    1
     6    11    12   ar
     7    12     1    1
     8     1     2   ar
     9     2     3   ar
    10     3     4    1
    11     3     5   ar
    12     5     6   ar
    13     6     7   ar
    14     7     8   ar
    15     8     9   ar
    16     9    24    1
    17    24    25    1
    18    25    26    1
    19    26    27    1
    20    27    29    1
    21    29    30    1
    22    30    31    1
    23    31    32    1
    24    32    33    1
    25    33    34    1
    26    27    28    1
    27    28    35    1
    28    35    36    2
    29    35    37    1
    30     9    10   ar
    31    12    13   ar
    32    13    14   ar
    33    14    15   ar
    34    15    16    1
    35    21    22   ar
    36    22    23   ar
    37    23    18   ar
    38    15    11   ar
    39    10     1   ar
    40    10     5   ar
    41    28    24    1
    42    34    29    1
    43    37    38    1
@<TRIPOS>MOLECULE
*****
 38 43 0 0 0
SMALL
GASTEIGER

@<TRIPOS>ATOM
      1 C         -25.5902   -5.8613  -13.2178 C.ar    1  UNL1        0.1095
      2 N         -26.0568   -5.0427  -14.1932 N.ar    1  UNL1       -0.1677
      3 N         -27.2923   -5.4170  -14.4936 N.ar    1  UNL1       -0.2319
      4 C         -28.1579   -4.7117  -15.4292 C.3     1  UNL1        0.1554
      5 C         -27.6278   -6.4459  -13.7024 C.ar    1  UNL1        0.1654
      6 N         -28.8371   -7.0508  -13.6368 N.ar    1  UNL1       -0.2050
      7 C         -29.0013   -8.0664  -12.7437 C.ar    1  UNL1        0.2014
      8 N         -27.9565   -8.4762  -11.9621 N.ar    1  UNL1       -0.2088
      9 C         -26.7257   -7.8816  -12.0170 C.ar    1  UNL1        0.1382
     10 C         -26.5797   -6.7941  -12.8971 C.ar    1  UNL1        0.0865
     11 C         -23.0756   -6.1845  -12.7330 C.ar    1  UNL1        0.0809
     12 C         -24.3167   -5.5932  -12.5388 C.ar    1  UNL1        0.0577
     13 C         -24.1401   -4.7144  -11.4894 C.ar    1  UNL1        0.1231
     14 N         -22.8570   -4.7559  -11.0849 N.ar    1  UNL1       -0.1676
     15 N         -22.2205   -5.6473  -11.8295 N.ar    1  UNL1       -0.2488
     16 C         -20.8115   -5.9721  -11.6303 C.3     1  UNL1        0.1537
     17 C         -21.8738  -10.5009  -16.4146 C.3     1  UNL1        0.0310
     18 C         -22.1515   -9.3586  -15.4834 C.ar    1  UNL1       -0.0218
     19 C         -21.4907   -9.2757  -14.2496 C.ar    1  UNL1       -0.0042
     20 C         -21.7805   -8.2351  -13.3631 C.ar    1  UNL1        0.0012
     21 C         -22.7521   -7.2733  -13.6866 C.ar    1  UNL1        0.0174
     22 C         -23.4213   -7.3681  -14.9168 C.ar    1  UNL1        0.0012
     23 C         -23.1257   -8.4040  -15.8072 C.ar    1  UNL1       -0.0042
     24 N         -25.6385   -8.4617  -11.2689 N.pl3   1  UNL1       -0.2841
     25 C         -25.7677   -8.7076   -9.8445 C.3     1  UNL1        0.0941
     26 C         -24.4825   -9.3975   -9.4302 C.3     1  UNL1        0.0397
     27 C         -23.9354  -10.0734  -10.6987 C.3     1  UNL1        0.0884
     28 C         -24.5448   -9.2374  -11.8530 C.3     1  UNL1        0.1883
     29 N         -22.4448  -10.0815  -10.7255 N.3     1  UNL1       -0.2719
     30 C         -21.8749   -9.7014   -9.4118 C.3     1  UNL1        0.0721
     31 C         -20.3644   -9.4306   -9.5387 C.3     1  UNL1        0.0174
     32 C         -19.7184  -10.2411  -10.6719 C.3     1  UNL1        0.0029
     33 C         -20.4127  -11.5923  -10.8317 C.3     1  UNL1        0.0174
     34 C         -21.9186  -11.4152  -11.1292 C.3     1  UNL1        0.0721
     35 C         -25.0407  -10.1157  -12.9721 C.2     1  UNL1        0.3334
     36 O         -24.6887  -11.3242  -13.0287 O.2     1  UNL1       -0.2484
     37 O         -25.8783   -9.5908  -13.9520 O.3     1  UNL1       -0.4790
     38 H         -26.2129  -10.1692  -14.7133 H       1  UNL1        0.2951
@<TRIPOS>BOND
     1    17    18    1
     2    18    19   ar
     3    19    20   ar
     4    20    21   ar
     5    21    11    1
     6    11    12   ar
     7    12     1    1
     8     1     2   ar
     9     2     3   ar
    10     3     4    1
    11     3     5   ar
    12     5     6   ar
    13     6     7   ar
    14     7     8   ar
    15     8     9   ar
    16     9    24    1
    17    24    25    1
    18    25    26    1
    19    26    27    1
    20    27    29    1
    21    29    30    1
    22    30    31    1
    23    31    32    1
    24    32    33    1
    25    33    34    1
    26    27    28    1
    27    28    35    1
    28    35    36    2
    29    35    37    1
    30     9    10   ar
    31    12    13   ar
    32    13    14   ar
    33    14    15   ar
    34    15    16    1
    35    21    22   ar
    36    22    23   ar
    37    23    18   ar
    38    15    11   ar
    39    10     1   ar
    40    10     5   ar
    41    28    24    1
    42    34    29    1
    43    37    38    1
