@<TRIPOS>MOLECULE
*****
 46 51 0 0 0
SMALL
GASTEIGER

@<TRIPOS>ATOM
      1 C          61.7804   87.2414   10.8877 C.ar    1  UNL1        0.1713
      2 C          61.6922   87.8633    9.6296 C.ar    1  UNL1        0.0560
      3 C          61.1330   87.1858    8.5401 C.ar    1  UNL1        0.0732
      4 C          60.7014   85.8641    8.7202 C.ar    1  UNL1        0.1151
      5 N          60.8067   85.2718    9.9375 N.ar    1  UNL1       -0.2248
      6 C          61.3358   85.9131   11.0150 C.ar    1  UNL1        0.1660
      7 N          61.4047   85.2300   12.2767 N.pl3   1  UNL1       -0.2908
      8 C          62.6880   85.1773   12.9896 C.3     1  UNL1        0.0924
      9 C          62.6265   84.2185   14.1882 C.3     1  UNL1        0.0252
     10 C          61.8214   82.9584   13.8159 C.3     1  UNL1        0.0472
     11 C          60.3568   83.3126   13.4458 C.3     1  UNL1        0.0252
     12 C          60.1840   84.7565   12.9410 C.3     1  UNL1        0.0924
     13 C          61.8607   81.9161   14.9502 C.3     1  UNL1        0.2054
     14 O          61.9034   80.5862   14.4297 O.3     1  UNL1       -0.4755
     15 C          61.5780   80.2119   13.1155 C.ar    1  UNL1        0.1388
     16 C          62.4379   80.4381   12.0238 C.ar    1  UNL1        0.0369
     17 C          62.0607   80.0421   10.7391 C.ar    1  UNL1        0.0033
     18 C          60.8275   79.4225   10.5265 C.ar    1  UNL1        0.0066
     19 C          59.9534   79.1931   11.6019 C.ar    1  UNL1        0.0785
     20 C          60.3403   79.5948   12.8938 C.ar    1  UNL1        0.0433
     21 C          58.6462   78.5379   11.3746 C.2     1  UNL1        0.3381
     22 O          58.4075   77.4012   11.8652 O.2     1  UNL1       -0.2451
     23 O          57.6661   79.1717   10.6151 O.3     1  UNL1       -0.4771
     24 H          56.7679   78.7321   10.4533 H       1  UNL1        0.2954
     25 N          61.0694   87.8355    7.2598 N.am    1  UNL1       -0.2766
     26 C          60.0670   88.8005    6.8946 C.2     1  UNL1        0.2839
     27 O          59.1155   89.0612    7.6781 O.2     1  UNL1       -0.2665
     28 H          61.8377   87.6296    6.5850 H       1  UNL1        0.1553
     29 C          60.1106   89.4895    5.5933 C.ar    1  UNL1        0.1946
     30 O          61.2440   89.7210    4.9545 O.2     1  UNL1       -0.4492
     31 C          60.9573   90.3489    3.8403 C.ar    1  UNL1        0.1452
     32 C          61.8453   90.7908    2.8656 C.ar    1  UNL1        0.0375
     33 C          61.3166   91.4445    1.7389 C.ar    1  UNL1        0.0031
     34 C          59.9159   91.6454    1.6032 C.ar    1  UNL1        0.0002
     35 C          59.0469   91.1789    2.6186 C.ar    1  UNL1        0.0028
     36 C          59.6071   90.5366    3.7230 C.ar    1  UNL1        0.0337
     37 C          59.0309   89.9704    4.8421 C.ar    1  UNL1        0.0202
     38 C          57.5655   89.8711    5.1406 C.3     1  UNL1        0.0345
     39 C          59.3686   92.3373    0.4087 C.ar    1  UNL1        0.0000
     40 C          58.0297   92.1423    0.0193 C.ar    1  UNL1        0.0000
     41 C          57.5169   92.7949   -1.1059 C.ar    1  UNL1        0.0000
     42 C          58.3322   93.6466   -1.8545 C.ar    1  UNL1        0.0000
     43 C          59.6622   93.8479   -1.4792 C.ar    1  UNL1        0.0000
     44 C          60.1800   93.1985   -0.3543 C.ar    1  UNL1        0.0000
     45 C          63.1250   89.0511   11.9752 C.3     1  UNL1        0.2526
     46 O          62.2747   87.9104   12.0188 O.3     1  UNL1       -0.4686
@<TRIPOS>BOND
     1    45    46    1
     2    46     1    1
     3     1     2   ar
     4     2     3   ar
     5     3    25    1
     6    25    26   am
     7    26    27    2
     8    26    29    1
     9    29    30   ar
    10    30    31   ar
    11    31    32   ar
    12    32    33   ar
    13    33    34   ar
    14    34    39    1
    15    39    40   ar
    16    40    41   ar
    17    41    42   ar
    18    42    43   ar
    19    43    44   ar
    20    34    35   ar
    21    35    36   ar
    22    36    37   ar
    23    37    38    1
    24     3     4   ar
    25     4     5   ar
    26     5     6   ar
    27     6     7    1
    28     7     8    1
    29     8     9    1
    30     9    10    1
    31    10    13    1
    32    13    14    1
    33    14    15    1
    34    15    16   ar
    35    16    17   ar
    36    17    18   ar
    37    18    19   ar
    38    19    21    1
    39    21    22    2
    40    21    23    1
    41    19    20   ar
    42    10    11    1
    43    11    12    1
    44     6     1   ar
    45    12     7    1
    46    37    29   ar
    47    20    15   ar
    48    36    31   ar
    49    44    39   ar
    50    25    28    1
    51    23    24    1
@<TRIPOS>MOLECULE
*****
 46 51 0 0 0
SMALL
GASTEIGER

@<TRIPOS>ATOM
      1 C          62.2279   88.0690   11.1914 C.ar    1  UNL1        0.1713
      2 C          62.1788   88.6190    9.8981 C.ar    1  UNL1        0.0560
      3 C          61.2741   88.1265    8.9507 C.ar    1  UNL1        0.0732
      4 C          60.4492   87.0497    9.3054 C.ar    1  UNL1        0.1151
      5 N          60.5185   86.5193   10.5535 N.ar    1  UNL1       -0.2248
      6 C          61.3812   86.9880   11.4960 C.ar    1  UNL1        0.1660
      7 N          61.3920   86.3876   12.8009 N.pl3   1  UNL1       -0.2908
      8 C          62.6353   86.4047   13.5830 C.3     1  UNL1        0.0924
      9 C          62.5237   85.5227   14.8358 C.3     1  UNL1        0.0252
     10 C          61.7599   84.2264   14.5029 C.3     1  UNL1        0.0472
     11 C          60.3122   84.5285   14.0334 C.3     1  UNL1        0.0252
     12 C          60.1446   85.9340   13.4283 C.3     1  UNL1        0.0924
     13 C          61.7538   83.2590   15.7023 C.3     1  UNL1        0.2054
     14 O          62.2444   81.9699   15.3299 O.3     1  UNL1       -0.4755
     15 C          62.1590   81.4017   14.0481 C.ar    1  UNL1        0.1388
     16 C          61.2726   80.3530   13.7369 C.ar    1  UNL1        0.0369
     17 C          61.2310   79.8292   12.4434 C.ar    1  UNL1        0.0033
     18 C          62.0699   80.3383   11.4499 C.ar    1  UNL1        0.0066
     19 C          62.9651   81.3807   11.7420 C.ar    1  UNL1        0.0785
     20 C          63.0013   81.9036   13.0479 C.ar    1  UNL1        0.0433
     21 C          63.8546   81.9178   10.6885 C.2     1  UNL1        0.3381
     22 O          63.4443   82.0287    9.5014 O.2     1  UNL1       -0.2451
     23 O          65.1553   82.3063   10.9988 O.3     1  UNL1       -0.4771
     24 H          65.7724   82.6752   10.2852 H       1  UNL1        0.2954
     25 N          61.2542   88.6928    7.6301 N.am    1  UNL1       -0.2766
     26 C          60.0558   88.9125    6.8653 C.2     1  UNL1        0.2839
     27 O          58.9397   88.5221    7.3003 O.2     1  UNL1       -0.2665
     28 H          62.1660   89.0143    7.2382 H       1  UNL1        0.1553
     29 C          60.1015   89.5745    5.5501 C.ar    1  UNL1        0.1946
     30 O          61.2331   89.7661    4.8950 O.2     1  UNL1       -0.4492
     31 C          60.9491   90.3785    3.7715 C.ar    1  UNL1        0.1452
     32 C          61.8367   90.7797    2.7790 C.ar    1  UNL1        0.0375
     33 C          61.3113   91.4236    1.6449 C.ar    1  UNL1        0.0031
     34 C          59.9144   91.6552    1.5199 C.ar    1  UNL1        0.0002
     35 C          59.0458   91.2298    2.5535 C.ar    1  UNL1        0.0028
     36 C          59.6026   90.5962    3.6646 C.ar    1  UNL1        0.0337
     37 C          59.0253   90.0661    4.8008 C.ar    1  UNL1        0.0202
     38 C          57.5614   90.0078    5.1165 C.3     1  UNL1        0.0345
     39 C          59.3707   92.3363    0.3176 C.ar    1  UNL1        0.0000
     40 C          60.1782   93.2077   -0.4381 C.ar    1  UNL1        0.0000
     41 C          59.6636   93.8478   -1.5697 C.ar    1  UNL1        0.0000
     42 C          58.3406   93.6274   -1.9589 C.ar    1  UNL1        0.0000
     43 C          57.5291   92.7660   -1.2173 C.ar    1  UNL1        0.0000
     44 C          58.0387   92.1225   -0.0853 C.ar    1  UNL1        0.0000
     45 C          63.9028   89.7264   12.0358 C.3     1  UNL1        0.2526
     46 O          63.0752   88.5785   12.1883 O.3     1  UNL1       -0.4686
@<TRIPOS>BOND
     1    45    46    1
     2    46     1    1
     3     1     2   ar
     4     2     3   ar
     5     3    25    1
     6    25    26   am
     7    26    27    2
     8    26    29    1
     9    29    30   ar
    10    30    31   ar
    11    31    32   ar
    12    32    33   ar
    13    33    34   ar
    14    34    39    1
    15    39    40   ar
    16    40    41   ar
    17    41    42   ar
    18    42    43   ar
    19    43    44   ar
    20    34    35   ar
    21    35    36   ar
    22    36    37   ar
    23    37    38    1
    24     3     4   ar
    25     4     5   ar
    26     5     6   ar
    27     6     7    1
    28     7     8    1
    29     8     9    1
    30     9    10    1
    31    10    13    1
    32    13    14    1
    33    14    15    1
    34    15    16   ar
    35    16    17   ar
    36    17    18   ar
    37    18    19   ar
    38    19    21    1
    39    21    22    2
    40    21    23    1
    41    19    20   ar
    42    10    11    1
    43    11    12    1
    44     6     1   ar
    45    12     7    1
    46    37    29   ar
    47    20    15   ar
    48    36    31   ar
    49    44    39   ar
    50    25    28    1
    51    23    24    1
