@<TRIPOS>MOLECULE
*****
 36 40 0 0 0
SMALL
GASTEIGER

@<TRIPOS>ATOM
      1 C          49.7118   11.1275  -23.3708 C.2     1  UNL1        0.2491
      2 O          49.2829   10.1357  -24.0208 O.2     1  UNL1       -0.2699
      3 N          50.3995   12.1894  -24.0641 N.am    1  UNL1       -0.2680
      4 C          51.5131   12.9065  -23.4338 C.3     1  UNL1        0.1412
      5 C          52.8474   12.2922  -23.8511 C.3     1  UNL1        0.2268
      6 O          53.0770   12.4271  -25.2525 O.3     1  UNL1       -0.4739
      7 C          52.4655   11.6013  -26.2027 C.ar    1  UNL1        0.1362
      8 C          53.2804   10.8617  -27.0644 C.ar    1  UNL1        0.0366
      9 C          52.7186    9.9951  -28.0032 C.ar    1  UNL1        0.0031
     10 C          51.3242    9.8646  -28.1072 C.ar    1  UNL1       -0.0000
     11 C          50.5035   10.6324  -27.2620 C.ar    1  UNL1        0.0004
     12 C          51.0628   11.5055  -26.3134 C.ar    1  UNL1        0.0317
     13 C          50.1632   12.3933  -25.4948 C.3     1  UNL1        0.1236
     14 C          50.7270    8.9403  -29.1039 C.ar    1  UNL1        0.0015
     15 C          49.3355    8.6439  -29.0664 C.ar    1  UNL1        0.0016
     16 C          48.7583    7.7695  -30.0063 C.ar    1  UNL1        0.0206
     17 C          49.5928    7.2086  -30.9671 C.ar    1  UNL1        0.0985
     18 N          49.2588    6.3538  -31.9505 N.ar    1  UNL1       -0.2241
     19 C          50.4452    6.1359  -32.5769 C.ar    1  UNL1        0.1750
     20 N          51.4804    6.8135  -32.0250 N.ar    1  UNL1       -0.3349
     21 C          50.9238    7.4859  -31.0109 C.ar    1  UNL1        0.0757
     22 C          51.5361    8.3444  -30.1022 C.ar    1  UNL1        0.0185
     23 H          52.4808    6.8097  -32.3244 H       1  UNL1        0.1675
     24 C          48.4997   12.2135  -21.4091 C.ar    1  UNL1       -0.0165
     25 C          48.2815   12.2686  -20.0204 C.ar    1  UNL1        0.0142
     26 C          48.9400   11.3906  -19.1529 C.ar    1  UNL1        0.1054
     27 C          49.8081   10.4273  -19.6723 C.ar    1  UNL1        0.0185
     28 C          50.0331   10.3533  -21.0466 C.ar    1  UNL1        0.0055
     29 C          49.3924   11.2386  -21.9292 C.ar    1  UNL1        0.0497
     30 S          48.6319   11.4659  -17.4213 S.O2    1  UNL1        0.0104
     31 C          48.5774   13.1669  -16.9065 C.3     1  UNL1        0.1816
     32 O          47.3202   10.8035  -17.1050 O.2     1  UNL1       -0.1686
     33 O          49.7253   10.7492  -16.6797 O.2     1  UNL1       -0.1686
     34 C          47.6618   13.1115  -22.2933 C.3     1  UNL1        0.0265
     35 C          46.1113   12.4424  -24.1704 C.3     1  UNL1        0.0004
     36 C          46.3462   12.4182  -22.6632 C.3     1  UNL1        0.0047
@<TRIPOS>BOND
     1    35    36    1
     2    36    34    1
     3    34    24    1
     4    24    25   ar
     5    25    26   ar
     6    26    30    1
     7    30    31    1
     8    30    32    2
     9    30    33    2
    10    26    27   ar
    11    27    28   ar
    12    28    29   ar
    13    29     1    1
    14     1     2    2
    15     1     3   am
    16     3     4    1
    17     4     5    1
    18     5     6    1
    19     6     7    1
    20     7     8   ar
    21     8     9   ar
    22     9    10   ar
    23    10    14    1
    24    14    15   ar
    25    15    16   ar
    26    16    17   ar
    27    17    18   ar
    28    18    19   ar
    29    19    20   ar
    30    20    21   ar
    31    21    22   ar
    32    10    11   ar
    33    11    12   ar
    34    12    13    1
    35    29    24   ar
    36    13     3    1
    37    12     7   ar
    38    22    14   ar
    39    21    17   ar
    40    20    23    1
@<TRIPOS>MOLECULE
*****
 36 40 0 0 0
SMALL
GASTEIGER

@<TRIPOS>ATOM
      1 C          49.8796   11.5838  -21.9861 C.2     1  UNL1        0.2491
      2 O          49.6535   10.5413  -22.6586 O.2     1  UNL1       -0.2699
      3 N          50.3515   12.7727  -22.6532 N.am    1  UNL1       -0.2680
      4 C          51.3025   13.6788  -22.0002 C.3     1  UNL1        0.1412
      5 C          52.7322   13.3430  -22.4184 C.3     1  UNL1        0.2268
      6 O          52.9373   13.5485  -23.8150 O.3     1  UNL1       -0.4739
      7 C          52.5014   12.6395  -24.7859 C.ar    1  UNL1        0.1362
      8 C          53.4476   12.0893  -25.6551 C.ar    1  UNL1        0.0366
      9 C          53.0684   11.1498  -26.6150 C.ar    1  UNL1        0.0031
     10 C          51.7260   10.7542  -26.7328 C.ar    1  UNL1       -0.0000
     11 C          50.7686   11.3311  -25.8797 C.ar    1  UNL1        0.0004
     12 C          51.1442   12.2764  -24.9099 C.ar    1  UNL1        0.0317
     13 C          50.0862   12.9563  -24.0817 C.3     1  UNL1        0.1236
     14 C          51.3234    9.7524  -27.7519 C.ar    1  UNL1        0.0015
     15 C          50.0310    9.1583  -27.7048 C.ar    1  UNL1        0.0016
     16 C          49.6381    8.2078  -28.6658 C.ar    1  UNL1        0.0206
     17 C          50.5540    7.8720  -29.6569 C.ar    1  UNL1        0.0985
     18 N          50.3934    6.9951  -30.6641 N.ar    1  UNL1       -0.2241
     19 C          51.5851    7.0606  -31.3144 C.ar    1  UNL1        0.1750
     20 N          52.4594    7.9309  -30.7544 N.ar    1  UNL1       -0.3349
     21 C          51.7914    8.4345  -29.7101 C.ar    1  UNL1        0.0757
     22 C          52.2214    9.3780  -28.7814 C.ar    1  UNL1        0.0185
     23 H          53.4300    8.1547  -31.0681 H       1  UNL1        0.1675
     24 C          48.2102   11.4531  -20.0644 C.ar    1  UNL1       -0.0165
     25 C          47.9738   11.5173  -18.6791 C.ar    1  UNL1        0.0142
     26 C          49.0219   11.7386  -17.7795 C.ar    1  UNL1        0.1054
     27 C          50.3272   11.8729  -18.2586 C.ar    1  UNL1        0.0185
     28 C          50.5825   11.8065  -19.6280 C.ar    1  UNL1        0.0055
     29 C          49.5385   11.6015  -20.5453 C.ar    1  UNL1        0.0497
     30 S          48.7021   11.7922  -16.0492 S.O2    1  UNL1        0.0104
     31 C          50.2262   11.5677  -15.1616 C.3     1  UNL1        0.1816
     32 O          48.0972   13.1180  -15.6807 O.2     1  UNL1       -0.1686
     33 O          47.7366   10.7017  -15.6776 O.2     1  UNL1       -0.1686
     34 C          47.0490   11.0900  -20.9644 C.3     1  UNL1        0.0265
     35 C          46.2695   12.3647  -22.9997 C.3     1  UNL1        0.0004
     36 C          46.3549   12.3565  -21.4766 C.3     1  UNL1        0.0047
@<TRIPOS>BOND
     1    35    36    1
     2    36    34    1
     3    34    24    1
     4    24    25   ar
     5    25    26   ar
     6    26    30    1
     7    30    31    1
     8    30    32    2
     9    30    33    2
    10    26    27   ar
    11    27    28   ar
    12    28    29   ar
    13    29     1    1
    14     1     2    2
    15     1     3   am
    16     3     4    1
    17     4     5    1
    18     5     6    1
    19     6     7    1
    20     7     8   ar
    21     8     9   ar
    22     9    10   ar
    23    10    14    1
    24    14    15   ar
    25    15    16   ar
    26    16    17   ar
    27    17    18   ar
    28    18    19   ar
    29    19    20   ar
    30    20    21   ar
    31    21    22   ar
    32    10    11   ar
    33    11    12   ar
    34    12    13    1
    35    29    24   ar
    36    13     3    1
    37    12     7   ar
    38    22    14   ar
    39    21    17   ar
    40    20    23    1
@<TRIPOS>MOLECULE
*****
 36 40 0 0 0
SMALL
GASTEIGER

@<TRIPOS>ATOM
      1 C          48.4257   11.7547  -23.4198 C.2     1  UNL1        0.2491
      2 O          48.4025   10.7338  -24.1597 O.2     1  UNL1       -0.2699
      3 N          49.2248   12.8932  -23.8026 N.am    1  UNL1       -0.2680
      4 C          49.9050   13.7126  -22.7938 C.3     1  UNL1        0.1412
      5 C          51.3481   13.2474  -22.6134 C.3     1  UNL1        0.2268
      6 O          52.1149   13.4272  -23.8027 O.3     1  UNL1       -0.4739
      7 C          52.0320   12.5569  -24.8957 C.ar    1  UNL1        0.1362
      8 C          53.1980   11.9197  -25.3290 C.ar    1  UNL1        0.0366
      9 C          53.1597   11.0139  -26.3901 C.ar    1  UNL1        0.0031
     10 C          51.9504   10.7405  -27.0497 C.ar    1  UNL1       -0.0000
     11 C          50.7829   11.4052  -26.6347 C.ar    1  UNL1        0.0004
     12 C          50.8143   12.3172  -25.5657 C.ar    1  UNL1        0.0317
     13 C          49.5739   13.0935  -25.2106 C.3     1  UNL1        0.1236
     14 C          51.9094    9.7745  -28.1765 C.ar    1  UNL1        0.0015
     15 C          53.0906    9.4781  -28.9128 C.ar    1  UNL1        0.0016
     16 C          53.0639    8.5638  -29.9827 C.ar    1  UNL1        0.0206
     17 C          51.8477    7.9645  -30.2923 C.ar    1  UNL1        0.0985
     18 N          51.5935    7.0719  -31.2660 N.ar    1  UNL1       -0.2241
     19 C          50.2638    6.8328  -31.1166 C.ar    1  UNL1        0.1750
     20 N          49.6990    7.5334  -30.1039 N.ar    1  UNL1       -0.3349
     21 C          50.7135    8.2415  -29.5943 C.ar    1  UNL1        0.0757
     22 C          50.6942    9.1381  -28.5297 C.ar    1  UNL1        0.0185
     23 H          48.7015    7.5211  -29.7949 H       1  UNL1        0.1675
     24 C          47.8459   11.1698  -21.0077 C.ar    1  UNL1       -0.0165
     25 C          46.9250   11.2456  -19.9468 C.ar    1  UNL1        0.0142
     26 C          45.7116   11.9260  -20.0941 C.ar    1  UNL1        0.1054
     27 C          45.4182   12.5620  -21.3028 C.ar    1  UNL1        0.0185
     28 C          46.3208   12.5030  -22.3642 C.ar    1  UNL1        0.0055
     29 C          47.5360   11.8096  -22.2374 C.ar    1  UNL1        0.0497
     30 S          44.5868   12.0249  -18.7436 S.O2    1  UNL1        0.0104
     31 C          42.9236   11.8560  -19.3491 C.3     1  UNL1        0.1816
     32 O          44.8749   10.9295  -17.7555 O.2     1  UNL1       -0.1686
     33 O          44.7396   13.3507  -18.0520 O.2     1  UNL1       -0.1686
     34 C          49.1868   10.5231  -20.7358 C.3     1  UNL1        0.0265
     35 C          50.5306   11.9279  -19.1247 C.3     1  UNL1        0.0004
     36 C          49.5936   10.7333  -19.2735 C.3     1  UNL1        0.0047
@<TRIPOS>BOND
     1    35    36    1
     2    36    34    1
     3    34    24    1
     4    24    25   ar
     5    25    26   ar
     6    26    30    1
     7    30    31    1
     8    30    32    2
     9    30    33    2
    10    26    27   ar
    11    27    28   ar
    12    28    29   ar
    13    29     1    1
    14     1     2    2
    15     1     3   am
    16     3     4    1
    17     4     5    1
    18     5     6    1
    19     6     7    1
    20     7     8   ar
    21     8     9   ar
    22     9    10   ar
    23    10    14    1
    24    14    15   ar
    25    15    16   ar
    26    16    17   ar
    27    17    18   ar
    28    18    19   ar
    29    19    20   ar
    30    20    21   ar
    31    21    22   ar
    32    10    11   ar
    33    11    12   ar
    34    12    13    1
    35    29    24   ar
    36    13     3    1
    37    12     7   ar
    38    22    14   ar
    39    21    17   ar
    40    20    23    1
@<TRIPOS>MOLECULE
*****
 36 40 0 0 0
SMALL
GASTEIGER

@<TRIPOS>ATOM
      1 C          51.0528   11.7015  -24.3842 C.2     1  UNL1        0.2491
      2 O          51.6336   11.3763  -23.3131 O.2     1  UNL1       -0.2699
      3 N          50.0242   12.7126  -24.3574 N.am    1  UNL1       -0.2680
      4 C          48.8580   12.6282  -25.2432 C.3     1  UNL1        0.1412
      5 C          47.6867   11.9660  -24.5213 C.3     1  UNL1        0.2268
      6 O          47.2419   12.7427  -23.4107 O.3     1  UNL1       -0.4739
      7 C          47.9131   12.7613  -22.1826 C.ar    1  UNL1        0.1362
      8 C          47.2107   12.3845  -21.0346 C.ar    1  UNL1        0.0366
      9 C          47.8465   12.3500  -19.7926 C.ar    1  UNL1        0.0031
     10 C          49.1992   12.7089  -19.6748 C.ar    1  UNL1       -0.0000
     11 C          49.8977   13.1185  -20.8244 C.ar    1  UNL1        0.0004
     12 C          49.2637   13.1538  -22.0783 C.ar    1  UNL1        0.0317
     13 C          50.0027   13.6965  -23.2729 C.3     1  UNL1        0.1236
     14 C          49.8761   12.6690  -18.3540 C.ar    1  UNL1        0.0015
     15 C          51.2970   12.6748  -18.2739 C.ar    1  UNL1        0.0016
     16 C          51.9497   12.6377  -17.0274 C.ar    1  UNL1        0.0206
     17 C          51.1598   12.5949  -15.8836 C.ar    1  UNL1        0.0985
     18 N          51.5671   12.5527  -14.6023 N.ar    1  UNL1       -0.2241
     19 C          50.3955   12.5207  -13.9140 C.ar    1  UNL1        0.1750
     20 N          49.2998   12.5412  -14.7106 N.ar    1  UNL1       -0.3349
     21 C          49.8012   12.5890  -15.9502 C.ar    1  UNL1        0.0757
     22 C          49.1146   12.6250  -17.1605 C.ar    1  UNL1        0.0185
     23 H          48.2968   12.5237  -14.4206 H       1  UNL1        0.1675
     24 C          51.1534    9.8305  -26.1122 C.ar    1  UNL1       -0.0165
     25 C          51.6774    9.3508  -27.3265 C.ar    1  UNL1        0.0142
     26 C          52.5639   10.1242  -28.0834 C.ar    1  UNL1        0.1054
     27 C          52.9161   11.4021  -27.6425 C.ar    1  UNL1        0.0185
     28 C          52.4027   11.8975  -26.4442 C.ar    1  UNL1        0.0055
     29 C          51.5246   11.1264  -25.6646 C.ar    1  UNL1        0.0497
     30 S          53.1875    9.5094  -29.6105 S.O2    1  UNL1        0.0104
     31 C          52.1649    8.1649  -30.1654 C.3     1  UNL1        0.1816
     32 O          53.1836   10.6021  -30.6427 O.2     1  UNL1       -0.1686
     33 O          54.5988    9.0265  -29.4247 O.2     1  UNL1       -0.1686
     34 C          50.1080    8.9900  -25.4115 C.3     1  UNL1        0.0265
     35 C          49.7312    8.6778  -22.9345 C.3     1  UNL1        0.0004
     36 C          50.6716    8.4166  -24.1069 C.3     1  UNL1        0.0047
@<TRIPOS>BOND
     1    35    36    1
     2    36    34    1
     3    34    24    1
     4    24    25   ar
     5    25    26   ar
     6    26    30    1
     7    30    31    1
     8    30    32    2
     9    30    33    2
    10    26    27   ar
    11    27    28   ar
    12    28    29   ar
    13    29     1    1
    14     1     2    2
    15     1     3   am
    16     3     4    1
    17     4     5    1
    18     5     6    1
    19     6     7    1
    20     7     8   ar
    21     8     9   ar
    22     9    10   ar
    23    10    14    1
    24    14    15   ar
    25    15    16   ar
    26    16    17   ar
    27    17    18   ar
    28    18    19   ar
    29    19    20   ar
    30    20    21   ar
    31    21    22   ar
    32    10    11   ar
    33    11    12   ar
    34    12    13    1
    35    29    24   ar
    36    13     3    1
    37    12     7   ar
    38    22    14   ar
    39    21    17   ar
    40    20    23    1
@<TRIPOS>MOLECULE
*****
 36 40 0 0 0
SMALL
GASTEIGER

@<TRIPOS>ATOM
      1 C          52.0263   10.7995  -27.6892 C.2     1  UNL1        0.2491
      2 O          51.9366   11.9866  -28.1049 O.2     1  UNL1       -0.2699
      3 N          51.3318   10.4125  -26.4854 N.am    1  UNL1       -0.2680
      4 C          51.9121    9.4339  -25.5594 C.3     1  UNL1        0.1412
      5 C          52.6649   10.1436  -24.4363 C.3     1  UNL1        0.2268
      6 O          51.7918   10.9319  -23.6294 O.3     1  UNL1       -0.4739
      7 C          51.3201   12.1877  -24.0284 C.ar    1  UNL1        0.1362
      8 C          51.5872   13.2895  -23.2109 C.ar    1  UNL1        0.0366
      9 C          51.1711   14.5682  -23.5845 C.ar    1  UNL1        0.0031
     10 C          50.4631   14.7655  -24.7813 C.ar    1  UNL1       -0.0000
     11 C          50.1666   13.6528  -25.5884 C.ar    1  UNL1        0.0004
     12 C          50.5841   12.3628  -25.2187 C.ar    1  UNL1        0.0317
     13 C          50.1627   11.1767  -26.0453 C.3     1  UNL1        0.1236
     14 C          50.0234   16.1263  -25.1800 C.ar    1  UNL1        0.0015
     15 C          50.8026   16.8964  -26.0885 C.ar    1  UNL1        0.0016
     16 C          50.3954   18.1875  -26.4739 C.ar    1  UNL1        0.0206
     17 C          49.2110   18.6804  -25.9372 C.ar    1  UNL1        0.0985
     18 N          48.6397   19.8772  -26.1626 N.ar    1  UNL1       -0.2241
     19 C          47.5213   19.8277  -25.3918 C.ar    1  UNL1        0.1750
     20 N          47.3847   18.6643  -24.7112 N.ar    1  UNL1       -0.3349
     21 C          48.4596   17.9519  -25.0683 C.ar    1  UNL1        0.0757
     22 C          48.8239   16.6718  -24.6604 C.ar    1  UNL1        0.0185
     23 H          46.6165   18.3900  -24.0592 H       1  UNL1        0.1675
     24 C          52.1021    8.6634  -29.0778 C.ar    1  UNL1       -0.0165
     25 C          52.8683    7.7448  -29.8183 C.ar    1  UNL1        0.0142
     26 C          54.2445    7.9283  -29.9895 C.ar    1  UNL1        0.1054
     27 C          54.8655    9.0525  -29.4400 C.ar    1  UNL1        0.0185
     28 C          54.1219    9.9774  -28.7076 C.ar    1  UNL1        0.0055
     29 C          52.7423    9.7984  -28.5126 C.ar    1  UNL1        0.0497
     30 S          55.1760    6.7757  -30.9396 S.O2    1  UNL1        0.0104
     31 C          54.1638    6.1459  -32.2588 C.3     1  UNL1        0.1816
     32 O          56.3899    7.4492  -31.5160 O.2     1  UNL1       -0.1686
     33 O          55.6252    5.6407  -30.0625 O.2     1  UNL1       -0.1686
     34 C          50.6024    8.4645  -29.0384 C.3     1  UNL1        0.0265
     35 C          48.7469    7.9665  -30.6767 C.3     1  UNL1        0.0004
     36 C          50.1497    7.5885  -30.2114 C.3     1  UNL1        0.0047
@<TRIPOS>BOND
     1    35    36    1
     2    36    34    1
     3    34    24    1
     4    24    25   ar
     5    25    26   ar
     6    26    30    1
     7    30    31    1
     8    30    32    2
     9    30    33    2
    10    26    27   ar
    11    27    28   ar
    12    28    29   ar
    13    29     1    1
    14     1     2    2
    15     1     3   am
    16     3     4    1
    17     4     5    1
    18     5     6    1
    19     6     7    1
    20     7     8   ar
    21     8     9   ar
    22     9    10   ar
    23    10    14    1
    24    14    15   ar
    25    15    16   ar
    26    16    17   ar
    27    17    18   ar
    28    18    19   ar
    29    19    20   ar
    30    20    21   ar
    31    21    22   ar
    32    10    11   ar
    33    11    12   ar
    34    12    13    1
    35    29    24   ar
    36    13     3    1
    37    12     7   ar
    38    22    14   ar
    39    21    17   ar
    40    20    23    1
@<TRIPOS>MOLECULE
*****
 36 40 0 0 0
SMALL
GASTEIGER

@<TRIPOS>ATOM
      1 C          50.0990   11.7600  -21.5285 C.2     1  UNL1        0.2491
      2 O          49.8796   10.7572  -22.2609 O.2     1  UNL1       -0.2699
      3 N          50.6214   12.9697  -22.1157 N.am    1  UNL1       -0.2680
      4 C          51.5631   13.8211  -21.3809 C.3     1  UNL1        0.1412
      5 C          53.0016   13.4750  -21.7586 C.3     1  UNL1        0.2268
      6 O          53.2673   13.7446  -23.1339 O.3     1  UNL1       -0.4739
      7 C          52.8530   12.8946  -24.1657 C.ar    1  UNL1        0.1362
      8 C          53.8226   12.3674  -25.0233 C.ar    1  UNL1        0.0366
      9 C          53.4638   11.4850  -26.0435 C.ar    1  UNL1        0.0031
     10 C          52.1197   11.1254  -26.2341 C.ar    1  UNL1       -0.0000
     11 C          51.1402   11.6804  -25.3915 C.ar    1  UNL1        0.0004
     12 C          51.4950   12.5681  -24.3613 C.ar    1  UNL1        0.0317
     13 C          50.4181   13.2295  -23.5425 C.3     1  UNL1        0.1236
     14 C          51.7388   10.1843  -27.3174 C.ar    1  UNL1        0.0015
     15 C          52.7054    9.7547  -28.2695 C.ar    1  UNL1        0.0016
     16 C          52.3559    8.8625  -29.3006 C.ar    1  UNL1        0.0206
     17 C          51.0389    8.4192  -29.3548 C.ar    1  UNL1        0.0985
     18 N          50.4899    7.5752  -30.2468 N.ar    1  UNL1       -0.2241
     19 C          49.1973    7.4980  -29.8334 C.ar    1  UNL1        0.1750
     20 N          48.9342    8.2507  -28.7381 N.ar    1  UNL1       -0.3349
     21 C          50.1080    8.8242  -28.4494 C.ar    1  UNL1        0.0757
     22 C          50.4096    9.7046  -27.4141 C.ar    1  UNL1        0.0185
     23 H          48.0240    8.3564  -28.2373 H       1  UNL1        0.1675
     24 C          48.3738   11.4302  -19.6814 C.ar    1  UNL1       -0.0165
     25 C          48.0768   11.4416  -18.3063 C.ar    1  UNL1        0.0142
     26 C          49.0620   11.7413  -17.3596 C.ar    1  UNL1        0.1054
     27 C          50.3668   12.0087  -17.7808 C.ar    1  UNL1        0.0185
     28 C          50.6821   11.9966  -19.1392 C.ar    1  UNL1        0.0055
     29 C          49.7001   11.7139  -20.1032 C.ar    1  UNL1        0.0497
     30 S          48.6692   11.7267  -15.6436 S.O2    1  UNL1        0.0104
     31 C          50.1472   11.4204  -14.7039 C.3     1  UNL1        0.1816
     32 O          48.0837   13.0512  -15.2407 O.2     1  UNL1       -0.1686
     33 O          47.6605   10.6482  -15.3631 O.2     1  UNL1       -0.1686
     34 C          47.2896   10.9787  -20.6358 C.3     1  UNL1        0.0265
     35 C          46.4901   12.4151  -22.5522 C.3     1  UNL1        0.0004
     36 C          46.4142   12.1667  -21.0489 C.3     1  UNL1        0.0047
@<TRIPOS>BOND
     1    35    36    1
     2    36    34    1
     3    34    24    1
     4    24    25   ar
     5    25    26   ar
     6    26    30    1
     7    30    31    1
     8    30    32    2
     9    30    33    2
    10    26    27   ar
    11    27    28   ar
    12    28    29   ar
    13    29     1    1
    14     1     2    2
    15     1     3   am
    16     3     4    1
    17     4     5    1
    18     5     6    1
    19     6     7    1
    20     7     8   ar
    21     8     9   ar
    22     9    10   ar
    23    10    14    1
    24    14    15   ar
    25    15    16   ar
    26    16    17   ar
    27    17    18   ar
    28    18    19   ar
    29    19    20   ar
    30    20    21   ar
    31    21    22   ar
    32    10    11   ar
    33    11    12   ar
    34    12    13    1
    35    29    24   ar
    36    13     3    1
    37    12     7   ar
    38    22    14   ar
    39    21    17   ar
    40    20    23    1
@<TRIPOS>MOLECULE
*****
 36 40 0 0 0
SMALL
GASTEIGER

@<TRIPOS>ATOM
      1 C          49.0117   11.4345  -23.9368 C.2     1  UNL1        0.2491
      2 O          48.7964   10.4048  -24.6321 O.2     1  UNL1       -0.2699
      3 N          49.8406   12.4901  -24.4658 N.am    1  UNL1       -0.2680
      4 C          50.7255   13.2667  -23.5909 C.3     1  UNL1        0.1412
      5 C          52.1352   12.6798  -23.6014 C.3     1  UNL1        0.2268
      6 O          52.7353   12.7672  -24.8925 O.3     1  UNL1       -0.4739
      7 C          52.4229   11.8855  -25.9337 C.ar    1  UNL1        0.1362
      8 C          53.4566   11.1394  -26.5066 C.ar    1  UNL1        0.0366
      9 C          53.1898   10.2192  -27.5215 C.ar    1  UNL1        0.0031
     10 C          51.8794   10.0400  -27.9939 C.ar    1  UNL1       -0.0000
     11 C          50.8440   10.8134  -27.4397 C.ar    1  UNL1        0.0004
     12 C          51.1057   11.7405  -26.4164 C.ar    1  UNL1        0.0317
     13 C          49.9992   12.6302  -25.9149 C.3     1  UNL1        0.1236
     14 C          51.5954    9.0587  -29.0713 C.ar    1  UNL1        0.0015
     15 C          50.2894    8.5135  -29.2213 C.ar    1  UNL1        0.0016
     16 C          50.0084    7.5828  -30.2392 C.ar    1  UNL1        0.0206
     17 C          51.0478    7.2173  -31.0877 C.ar    1  UNL1        0.0985
     18 N          51.0058    6.3516  -32.1164 N.ar    1  UNL1       -0.2241
     19 C          52.2822    6.3751  -32.5831 C.ar    1  UNL1        0.1750
     20 N          53.0954    7.2093  -31.8915 N.ar    1  UNL1       -0.3349
     21 C          52.2992    7.7330  -30.9522 C.ar    1  UNL1        0.0757
     22 C          52.6214    8.6554  -29.9607 C.ar    1  UNL1        0.0185
     23 H          54.1092    7.3978  -32.0562 H       1  UNL1        0.1675
     24 C          47.2214   12.4862  -22.4584 C.ar    1  UNL1       -0.0165
     25 C          46.6355   12.5962  -21.1842 C.ar    1  UNL1        0.0142
     26 C          47.1183   11.8512  -20.1031 C.ar    1  UNL1        0.1054
     27 C          48.1814   10.9652  -20.2942 C.ar    1  UNL1        0.0185
     28 C          48.7718   10.8380  -21.5511 C.ar    1  UNL1        0.0055
     29 C          48.3092   11.5916  -22.6427 C.ar    1  UNL1        0.0497
     30 S          46.3526   11.9908  -18.5241 S.O2    1  UNL1        0.0104
     31 C          44.5862   12.0126  -18.7264 C.3     1  UNL1        0.1816
     32 O          46.7444   10.8252  -17.6598 O.2     1  UNL1       -0.1686
     33 O          46.7993   13.2598  -17.8539 O.2     1  UNL1       -0.1686
     34 C          46.5690   13.2296  -23.6039 C.3     1  UNL1        0.0265
     35 C          45.3886   12.2291  -25.5990 C.3     1  UNL1        0.0004
     36 C          45.3303   12.4725  -24.0942 C.3     1  UNL1        0.0047
@<TRIPOS>BOND
     1    35    36    1
     2    36    34    1
     3    34    24    1
     4    24    25   ar
     5    25    26   ar
     6    26    30    1
     7    30    31    1
     8    30    32    2
     9    30    33    2
    10    26    27   ar
    11    27    28   ar
    12    28    29   ar
    13    29     1    1
    14     1     2    2
    15     1     3   am
    16     3     4    1
    17     4     5    1
    18     5     6    1
    19     6     7    1
    20     7     8   ar
    21     8     9   ar
    22     9    10   ar
    23    10    14    1
    24    14    15   ar
    25    15    16   ar
    26    16    17   ar
    27    17    18   ar
    28    18    19   ar
    29    19    20   ar
    30    20    21   ar
    31    21    22   ar
    32    10    11   ar
    33    11    12   ar
    34    12    13    1
    35    29    24   ar
    36    13     3    1
    37    12     7   ar
    38    22    14   ar
    39    21    17   ar
    40    20    23    1
@<TRIPOS>MOLECULE
*****
 36 40 0 0 0
SMALL
GASTEIGER

@<TRIPOS>ATOM
      1 C          49.6064   10.8430  -24.8277 C.2     1  UNL1        0.2491
      2 O          49.1528    9.8917  -25.5201 O.2     1  UNL1       -0.2699
      3 N          50.5758   11.7431  -25.4031 N.am    1  UNL1       -0.2680
      4 C          51.6516   12.3171  -24.5877 C.3     1  UNL1        0.1412
      5 C          52.9230   11.4812  -24.7171 C.3     1  UNL1        0.2268
      6 O          53.4322   11.4949  -26.0494 O.3     1  UNL1       -0.4739
      7 C          52.8856   10.7172  -27.0768 C.ar    1  UNL1        0.1362
      8 C          53.7175    9.8108  -27.7399 C.ar    1  UNL1        0.0366
      9 C          53.2103    8.9860  -28.7451 C.ar    1  UNL1        0.0031
     10 C          51.8583    9.0654  -29.1169 C.ar    1  UNL1       -0.0000
     11 C          51.0284    9.9994  -28.4718 C.ar    1  UNL1        0.0004
     12 C          51.5325   10.8316  -27.4577 C.ar    1  UNL1        0.0317
     13 C          50.6506   11.8946  -26.8577 C.3     1  UNL1        0.1236
     14 C          51.3184    8.1857  -30.1841 C.ar    1  UNL1        0.0015
     15 C          52.1991    7.5300  -31.0895 C.ar    1  UNL1        0.0016
     16 C          51.6986    6.6934  -32.1049 C.ar    1  UNL1        0.0206
     17 C          50.3200    6.5323  -32.1907 C.ar    1  UNL1        0.0985
     18 N          49.6309    5.7894  -33.0753 N.ar    1  UNL1       -0.2241
     19 C          48.3401    5.9980  -32.7039 C.ar    1  UNL1        0.1750
     20 N          48.2107    6.8282  -31.6411 N.ar    1  UNL1       -0.3349
     21 C          49.4704    7.1548  -31.3299 C.ar    1  UNL1        0.0757
     22 C          49.9213    7.9900  -30.3116 C.ar    1  UNL1        0.0185
     23 H          47.3296    7.1392  -31.1749 H       1  UNL1        0.1675
     24 C          47.8956   11.8964  -23.2592 C.ar    1  UNL1       -0.0165
     25 C          47.4495   12.1033  -21.9411 C.ar    1  UNL1        0.0142
     26 C          48.1265   11.5384  -20.8550 C.ar    1  UNL1        0.1054
     27 C          49.2474   10.7359  -21.0809 C.ar    1  UNL1        0.0185
     28 C          49.7016   10.5144  -22.3807 C.ar    1  UNL1        0.0055
     29 C          49.0425   11.0882  -23.4806 C.ar    1  UNL1        0.0497
     30 S          47.5342   11.7945  -19.2171 S.O2    1  UNL1        0.0104
     31 C          45.7704   12.0151  -19.2568 C.3     1  UNL1        0.1816
     32 O          47.8725   10.6079  -18.3586 O.2     1  UNL1       -0.1686
     33 O          48.1823   13.0162  -18.6284 O.2     1  UNL1       -0.1686
     34 C          47.0439   12.4366  -24.3875 C.3     1  UNL1        0.0265
     35 C          44.6024   12.3697  -25.0277 C.3     1  UNL1        0.0004
     36 C          45.6033   12.6528  -23.9118 C.3     1  UNL1        0.0047
@<TRIPOS>BOND
     1    35    36    1
     2    36    34    1
     3    34    24    1
     4    24    25   ar
     5    25    26   ar
     6    26    30    1
     7    30    31    1
     8    30    32    2
     9    30    33    2
    10    26    27   ar
    11    27    28   ar
    12    28    29   ar
    13    29     1    1
    14     1     2    2
    15     1     3   am
    16     3     4    1
    17     4     5    1
    18     5     6    1
    19     6     7    1
    20     7     8   ar
    21     8     9   ar
    22     9    10   ar
    23    10    14    1
    24    14    15   ar
    25    15    16   ar
    26    16    17   ar
    27    17    18   ar
    28    18    19   ar
    29    19    20   ar
    30    20    21   ar
    31    21    22   ar
    32    10    11   ar
    33    11    12   ar
    34    12    13    1
    35    29    24   ar
    36    13     3    1
    37    12     7   ar
    38    22    14   ar
    39    21    17   ar
    40    20    23    1
@<TRIPOS>MOLECULE
*****
 36 40 0 0 0
SMALL
GASTEIGER

@<TRIPOS>ATOM
      1 C          49.3403   13.0135  -20.0256 C.2     1  UNL1        0.2491
      2 O          49.3789   14.1651  -20.5377 O.2     1  UNL1       -0.2699
      3 N          49.1523   11.8627  -20.8751 N.am    1  UNL1       -0.2680
      4 C          48.3778   10.7040  -20.4176 C.3     1  UNL1        0.1412
      5 C          46.9302   10.8090  -20.8922 C.3     1  UNL1        0.2268
      6 O          46.8353   10.7688  -22.3149 O.3     1  UNL1       -0.4739
      7 C          47.1201   11.8746  -23.1242 C.ar    1  UNL1        0.1362
      8 C          46.1220   12.3468  -23.9811 C.ar    1  UNL1        0.0366
      9 C          46.3446   13.4696  -24.7796 C.ar    1  UNL1        0.0031
     10 C          47.5817   14.1336  -24.7459 C.ar    1  UNL1       -0.0000
     11 C          48.5969   13.6399  -23.9074 C.ar    1  UNL1        0.0004
     12 C          48.3786   12.5108  -23.0996 C.ar    1  UNL1        0.0317
     13 C          49.5143   11.9405  -22.2919 C.3     1  UNL1        0.1236
     14 C          47.8171   15.3299  -25.5931 C.ar    1  UNL1        0.0015
     15 C          46.9775   15.5957  -26.7111 C.ar    1  UNL1        0.0016
     16 C          47.1909   16.7268  -27.5212 C.ar    1  UNL1        0.0206
     17 C          48.2464   17.5701  -27.1912 C.ar    1  UNL1        0.0985
     18 N          48.6304   18.6946  -27.8215 N.ar    1  UNL1       -0.2241
     19 C          49.6978   19.1035  -27.0859 C.ar    1  UNL1        0.1750
     20 N          49.9808   18.2861  -26.0432 N.ar    1  UNL1       -0.3349
     21 C          49.0542   17.3243  -26.1246 C.ar    1  UNL1        0.0757
     22 C          48.8795   16.2187  -25.2971 C.ar    1  UNL1        0.0185
     23 H          50.7463   18.3865  -25.3401 H       1  UNL1        0.1675
     24 C          50.8924   12.5201  -18.0649 C.ar    1  UNL1       -0.0165
     25 C          51.0511   12.3584  -16.6764 C.ar    1  UNL1        0.0142
     26 C          49.9670   12.5106  -15.8054 C.ar    1  UNL1        0.1054
     27 C          48.7128   12.8532  -16.3163 C.ar    1  UNL1        0.0185
     28 C          48.5368   13.0234  -17.6892 C.ar    1  UNL1        0.0055
     29 C          49.6117   12.8575  -18.5783 C.ar    1  UNL1        0.0497
     30 S          50.1976   12.3249  -14.0701 S.O2    1  UNL1        0.0104
     31 C          48.8453   11.3898  -13.3933 C.3     1  UNL1        0.1816
     32 O          51.4899   11.6068  -13.7989 O.2     1  UNL1       -0.1686
     33 O          50.2517   13.6780  -13.4177 O.2     1  UNL1       -0.1686
     34 C          52.1322   12.4604  -18.9305 C.3     1  UNL1        0.0265
     35 C          52.8535   13.9298  -20.8530 C.3     1  UNL1        0.0004
     36 C          52.5520   13.8706  -19.3587 C.3     1  UNL1        0.0047
@<TRIPOS>BOND
     1    35    36    1
     2    36    34    1
     3    34    24    1
     4    24    25   ar
     5    25    26   ar
     6    26    30    1
     7    30    31    1
     8    30    32    2
     9    30    33    2
    10    26    27   ar
    11    27    28   ar
    12    28    29   ar
    13    29     1    1
    14     1     2    2
    15     1     3   am
    16     3     4    1
    17     4     5    1
    18     5     6    1
    19     6     7    1
    20     7     8   ar
    21     8     9   ar
    22     9    10   ar
    23    10    14    1
    24    14    15   ar
    25    15    16   ar
    26    16    17   ar
    27    17    18   ar
    28    18    19   ar
    29    19    20   ar
    30    20    21   ar
    31    21    22   ar
    32    10    11   ar
    33    11    12   ar
    34    12    13    1
    35    29    24   ar
    36    13     3    1
    37    12     7   ar
    38    22    14   ar
    39    21    17   ar
    40    20    23    1
