@<TRIPOS>MOLECULE
*****
 52 57 0 0 0
SMALL
GASTEIGER

@<TRIPOS>ATOM
      1 N         -29.8481   50.2087  -13.0255 N.am    1  UNL1       -0.2945
      2 C         -29.4820   51.0624  -11.9279 C.2     1  UNL1        0.2483
      3 O         -30.3782   51.6187  -11.2363 O.2     1  UNL1       -0.2701
      4 H         -29.0751   49.7368  -13.5412 H       1  UNL1        0.1501
      5 C         -28.0620   51.2282  -11.5409 C.ar    1  UNL1        0.0808
      6 C         -27.7205   51.2515  -10.1785 C.ar    1  UNL1        0.0080
      7 C         -26.3829   51.3132   -9.7819 C.ar    1  UNL1        0.0148
      8 C         -25.3594   51.3668  -10.7405 C.ar    1  UNL1        0.0502
      9 C         -25.6982   51.3728  -12.1017 C.ar    1  UNL1        0.0443
     10 C         -27.0365   51.3111  -12.5032 C.ar    1  UNL1        0.1457
     11 F         -27.3226   51.3683  -13.8284 F       1  UNL1       -0.2040
     12 N         -23.9774   51.4163  -10.3379 N.pl3   1  UNL1       -0.3040
     13 C         -23.6023   51.0405   -8.9696 C.3     1  UNL1        0.1122
     14 C         -22.4696   51.9374   -8.4746 C.3     1  UNL1        0.1122
     15 N         -21.3973   51.9853   -9.4753 N.pl3   1  UNL1       -0.3041
     16 C         -21.7592   52.3562  -10.8484 C.3     1  UNL1        0.1122
     17 C         -22.9128   51.4818  -11.3471 C.3     1  UNL1        0.1122
     18 C         -20.0204   51.9982   -9.0534 C.ar    1  UNL1        0.0479
     19 C         -19.0165   51.5240   -9.9111 C.ar    1  UNL1        0.0145
     20 C         -17.6775   51.5373   -9.5106 C.ar    1  UNL1        0.0051
     21 C         -17.3196   52.0092   -8.2362 C.ar    1  UNL1        0.0715
     22 C         -18.3226   52.5108   -7.3893 C.ar    1  UNL1        0.0051
     23 C         -19.6614   52.4979   -7.7908 C.ar    1  UNL1        0.0145
     24 C         -15.8704   52.0696   -7.8232 C.3     1  UNL1        0.4186
     25 F         -15.6147   53.2958   -7.2387 F       1  UNL1       -0.1659
     26 F         -15.0423   51.9117   -8.9210 F       1  UNL1       -0.1659
     27 F         -15.5790   51.0671   -6.9142 F       1  UNL1       -0.1659
     28 C         -31.2064   49.6705  -13.1811 C.3     1  UNL1        0.1535
     29 C         -31.3760   48.9708  -14.5116 C.2     1  UNL1        0.2443
     30 O         -31.5285   49.6766  -15.5455 O.2     1  UNL1       -0.2730
     31 N         -31.4505   47.5361  -14.6054 N.am    1  UNL1       -0.2825
     32 H         -31.6467   46.9848  -13.7418 H       1  UNL1        0.1549
     33 C         -31.4274   46.8154  -15.8485 C.ar    1  UNL1        0.0535
     34 C         -31.5840   45.4226  -15.8405 C.ar    1  UNL1        0.0353
     35 C         -31.5394   44.7151  -17.0441 C.ar    1  UNL1        0.1002
     36 N         -31.3289   45.3734  -18.2146 N.ar    1  UNL1       -0.2422
     37 C         -31.1546   46.7210  -18.2521 C.ar    1  UNL1        0.1002
     38 C         -31.1933   47.4667  -17.0712 C.ar    1  UNL1        0.0353
     39 C         -31.5840   48.7538  -11.9956 C.3     1  UNL1        0.0569
     40 C         -27.6662   47.2888   -8.6977 C.ar    1  UNL1        0.0361
     41 C         -28.6561   48.2859   -8.4765 C.ar    1  UNL1        0.0029
     42 C         -29.6898   48.4925   -9.4045 C.ar    1  UNL1        0.0013
     43 C         -29.7067   47.7061  -10.5526 C.ar    1  UNL1        0.0131
     44 C         -30.5253   47.7361  -11.6660 C.ar    1  UNL1       -0.0017
     45 C         -30.0507   46.7318  -12.5049 C.ar    1  UNL1        0.0681
     46 N         -28.9831   46.1163  -11.9473 N.ar    1  UNL1       -0.3523
     47 C         -28.7785   46.7236  -10.7652 C.ar    1  UNL1        0.0564
     48 C         -27.7450   46.4840   -9.8610 C.ar    1  UNL1        0.0198
     49 H         -28.4113   45.3523  -12.3713 H       1  UNL1        0.1660
     50 C         -26.6319   47.5824   -6.3235 C.3     1  UNL1        0.0773
     51 C         -26.5492   47.0940   -7.7382 C.2     1  UNL1        0.1735
     52 O         -25.4984   46.5053   -8.1118 O.2     1  UNL1       -0.2913
@<TRIPOS>BOND
     1    50    51    1
     2    51    52    2
     3    51    40    1
     4    40    41   ar
     5    41    42   ar
     6    42    43   ar
     7    43    44   ar
     8    44    39    1
     9    39    28    1
    10    28     1    1
    11     1     2   am
    12     2     3    2
    13     2     5    1
    14     5     6   ar
    15     6     7   ar
    16     7     8   ar
    17     8    12    1
    18    12    13    1
    19    13    14    1
    20    14    15    1
    21    15    18    1
    22    18    19   ar
    23    19    20   ar
    24    20    21   ar
    25    21    24    1
    26    24    25    1
    27    24    26    1
    28    24    27    1
    29    21    22   ar
    30    22    23   ar
    31    15    16    1
    32    16    17    1
    33     8     9   ar
    34     9    10   ar
    35    10    11    1
    36    28    29    1
    37    29    30    2
    38    29    31   am
    39    31    33    1
    40    33    34   ar
    41    34    35   ar
    42    35    36   ar
    43    36    37   ar
    44    37    38   ar
    45    44    45   ar
    46    45    46   ar
    47    46    47   ar
    48    47    48   ar
    49    48    40   ar
    50    47    43   ar
    51    10     5   ar
    52    38    33   ar
    53    17    12    1
    54    23    18   ar
    55     1     4    1
    56    31    32    1
    57    46    49    1
@<TRIPOS>MOLECULE
*****
 52 57 0 0 0
SMALL
GASTEIGER

@<TRIPOS>ATOM
      1 N         -29.5164   49.7589  -12.9825 N.am    1  UNL1       -0.2945
      2 C         -29.2066   50.9580  -12.2521 C.2     1  UNL1        0.2483
      3 O         -30.1311   51.7477  -11.9161 O.2     1  UNL1       -0.2701
      4 H         -28.7260   49.1156  -13.2008 H       1  UNL1        0.1501
      5 C         -27.8209   51.2362  -11.8093 C.ar    1  UNL1        0.0808
      6 C         -27.5418   51.3105  -10.4346 C.ar    1  UNL1        0.0080
      7 C         -26.2309   51.4788   -9.9835 C.ar    1  UNL1        0.0148
      8 C         -25.1732   51.5903  -10.8991 C.ar    1  UNL1        0.0502
      9 C         -25.4519   51.5455  -12.2732 C.ar    1  UNL1        0.0443
     10 C         -26.7633   51.3769  -12.7292 C.ar    1  UNL1        0.1457
     11 F         -26.9947   51.3877  -14.0662 F       1  UNL1       -0.2040
     12 N         -23.8175   51.7499  -10.4398 N.pl3   1  UNL1       -0.3040
     13 C         -22.7441   52.0020  -11.4087 C.3     1  UNL1        0.1122
     14 C         -21.4710   51.2777  -10.9761 C.3     1  UNL1        0.1122
     15 N         -21.1851   51.5694   -9.5666 N.pl3   1  UNL1       -0.3041
     16 C         -22.2510   51.3254   -8.5878 C.3     1  UNL1        0.1122
     17 C         -23.5415   52.0243   -9.0240 C.3     1  UNL1        0.1122
     18 C         -19.8249   51.7611   -9.1337 C.ar    1  UNL1        0.0479
     19 C         -19.5520   52.1098   -7.8024 C.ar    1  UNL1        0.0145
     20 C         -18.2345   52.2932   -7.3736 C.ar    1  UNL1        0.0051
     21 C         -17.1654   52.1486   -8.2742 C.ar    1  UNL1        0.0715
     22 C         -17.4381   51.7711   -9.6001 C.ar    1  UNL1        0.0051
     23 C         -18.7561   51.5871  -10.0280 C.ar    1  UNL1        0.0145
     24 C         -15.7416   52.2980   -7.8000 C.3     1  UNL1        0.4186
     25 F         -14.8912   52.2385   -8.8881 F       1  UNL1       -0.1659
     26 F         -15.4126   51.2861   -6.9146 F       1  UNL1       -0.1659
     27 F         -15.5656   53.5103   -7.1556 F       1  UNL1       -0.1659
     28 C         -30.8817   49.2223  -13.0664 C.3     1  UNL1        0.1535
     29 C         -30.9299   47.9572  -13.8942 C.2     1  UNL1        0.2443
     30 O         -31.5838   46.9743  -13.4505 O.2     1  UNL1       -0.2730
     31 N         -30.1845   47.8283  -15.1192 N.am    1  UNL1       -0.2825
     32 H         -29.4103   48.5009  -15.3104 H       1  UNL1        0.1549
     33 C         -30.3344   46.7290  -16.0327 C.ar    1  UNL1        0.0535
     34 C         -30.5955   45.4467  -15.5307 C.ar    1  UNL1        0.0353
     35 C         -30.7193   44.3710  -16.4131 C.ar    1  UNL1        0.1002
     36 N         -30.5711   44.5654  -17.7502 N.ar    1  UNL1       -0.2422
     37 C         -30.2988   45.7936  -18.2652 C.ar    1  UNL1        0.1002
     38 C         -30.1683   46.8967  -17.4177 C.ar    1  UNL1        0.0353
     39 C         -31.4883   49.0145  -11.6602 C.3     1  UNL1        0.0569
     40 C         -28.8484   50.0037   -7.1409 C.ar    1  UNL1        0.0361
     41 C         -29.9755   50.7023   -7.6555 C.ar    1  UNL1        0.0029
     42 C         -30.6273   50.2600   -8.8181 C.ar    1  UNL1        0.0013
     43 C         -30.1282   49.1305   -9.4600 C.ar    1  UNL1        0.0131
     44 C         -30.4915   48.5211  -10.6462 C.ar    1  UNL1       -0.0017
     45 C         -29.6192   47.4465  -10.7956 C.ar    1  UNL1        0.0681
     46 N         -28.7493   47.3973   -9.7611 N.ar    1  UNL1       -0.3523
     47 C         -29.0631   48.4314   -8.9610 C.ar    1  UNL1        0.0564
     48 C         -28.3986   48.8354   -7.8042 C.ar    1  UNL1        0.0198
     49 H         -27.9675   46.7167   -9.6349 H       1  UNL1        0.1660
     50 C         -27.3335   51.7590   -5.9505 C.3     1  UNL1        0.0773
     51 C         -28.1324   50.4908   -5.9341 C.2     1  UNL1        0.1735
     52 O         -28.1891   49.8284   -4.8625 O.2     1  UNL1       -0.2913
@<TRIPOS>BOND
     1    50    51    1
     2    51    52    2
     3    51    40    1
     4    40    41   ar
     5    41    42   ar
     6    42    43   ar
     7    43    44   ar
     8    44    39    1
     9    39    28    1
    10    28     1    1
    11     1     2   am
    12     2     3    2
    13     2     5    1
    14     5     6   ar
    15     6     7   ar
    16     7     8   ar
    17     8    12    1
    18    12    13    1
    19    13    14    1
    20    14    15    1
    21    15    18    1
    22    18    19   ar
    23    19    20   ar
    24    20    21   ar
    25    21    24    1
    26    24    25    1
    27    24    26    1
    28    24    27    1
    29    21    22   ar
    30    22    23   ar
    31    15    16    1
    32    16    17    1
    33     8     9   ar
    34     9    10   ar
    35    10    11    1
    36    28    29    1
    37    29    30    2
    38    29    31   am
    39    31    33    1
    40    33    34   ar
    41    34    35   ar
    42    35    36   ar
    43    36    37   ar
    44    37    38   ar
    45    44    45   ar
    46    45    46   ar
    47    46    47   ar
    48    47    48   ar
    49    48    40   ar
    50    47    43   ar
    51    10     5   ar
    52    38    33   ar
    53    17    12    1
    54    23    18   ar
    55     1     4    1
    56    31    32    1
    57    46    49    1
@<TRIPOS>MOLECULE
*****
 52 57 0 0 0
SMALL
GASTEIGER

@<TRIPOS>ATOM
      1 N         -28.4400   49.9359   -9.5474 N.am    1  UNL1       -0.2945
      2 C         -28.9467   48.8240   -8.7895 C.2     1  UNL1        0.2483
      3 O         -29.0938   47.6997   -9.3422 O.2     1  UNL1       -0.2701
      4 H         -28.2946   50.8335   -9.0382 H       1  UNL1        0.1501
      5 C         -29.2162   48.9582   -7.3393 C.ar    1  UNL1        0.0808
      6 C         -29.6783   47.8429   -6.6213 C.ar    1  UNL1        0.0080
      7 C         -29.8531   47.9109   -5.2374 C.ar    1  UNL1        0.0148
      8 C         -29.5824   49.1010   -4.5448 C.ar    1  UNL1        0.0502
      9 C         -29.1482   50.2253   -5.2626 C.ar    1  UNL1        0.0443
     10 C         -28.9718   50.1614   -6.6486 C.ar    1  UNL1        0.1457
     11 F         -28.5973   51.2853   -7.3103 F       1  UNL1       -0.2040
     12 N         -29.7472   49.1733   -3.1158 N.pl3   1  UNL1       -0.3040
     13 C         -28.6250   48.8312   -2.2338 C.3     1  UNL1        0.1122
     14 C         -29.1405   48.1090   -0.9908 C.3     1  UNL1        0.1122
     15 N         -30.2524   48.8631   -0.4004 N.pl3   1  UNL1       -0.3041
     16 C         -31.3793   49.2150   -1.2722 C.3     1  UNL1        0.1122
     17 C         -30.8733   49.9160   -2.5358 C.3     1  UNL1        0.1122
     18 C         -30.3797   48.9535    1.0313 C.ar    1  UNL1        0.0479
     19 C         -31.4491   49.6616    1.5999 C.ar    1  UNL1        0.0145
     20 C         -31.5820   49.7501    2.9884 C.ar    1  UNL1        0.0051
     21 C         -30.6364   49.1463    3.8347 C.ar    1  UNL1        0.0715
     22 C         -29.5820   48.4129    3.2642 C.ar    1  UNL1        0.0051
     23 C         -29.4502   48.3242    1.8754 C.ar    1  UNL1        0.0145
     24 C         -30.8070   49.1998    5.3321 C.3     1  UNL1        0.4186
     25 F         -29.5624   49.2697    5.9295 F       1  UNL1       -0.1659
     26 F         -31.4643   48.0709    5.7899 F       1  UNL1       -0.1659
     27 F         -31.5471   50.3101    5.7003 F       1  UNL1       -0.1659
     28 C         -27.7596   49.7604  -10.8379 C.3     1  UNL1        0.1535
     29 C         -28.7495   49.5425  -11.9608 C.2     1  UNL1        0.2443
     30 O         -29.1418   50.5450  -12.6179 O.2     1  UNL1       -0.2730
     31 N         -29.3074   48.2435  -12.2332 N.am    1  UNL1       -0.2825
     32 H         -29.2338   47.5012  -11.5040 H       1  UNL1        0.1549
     33 C         -30.1040   47.9441  -13.3913 C.ar    1  UNL1        0.0535
     34 C         -30.3471   46.6067  -13.7333 C.ar    1  UNL1        0.0353
     35 C         -31.1016   46.3104  -14.8709 C.ar    1  UNL1        0.1002
     36 N         -31.5833   47.3145  -15.6502 N.ar    1  UNL1       -0.2422
     37 C         -31.3481   48.6204  -15.3548 C.ar    1  UNL1        0.1002
     38 C         -30.5992   48.9605  -14.2254 C.ar    1  UNL1        0.0353
     39 C         -26.8050   50.9397  -11.1317 C.3     1  UNL1        0.0569
     40 C         -21.7546   52.2148  -10.0190 C.ar    1  UNL1        0.0361
     41 C         -22.4448   52.4061  -11.2478 C.ar    1  UNL1        0.0029
     42 C         -23.8124   52.1070  -11.3594 C.ar    1  UNL1        0.0013
     43 C         -24.4666   51.6026  -10.2393 C.ar    1  UNL1        0.0131
     44 C         -25.7580   51.1403  -10.0693 C.ar    1  UNL1       -0.0017
     45 C         -25.8360   50.7323   -8.7406 C.ar    1  UNL1        0.0681
     46 N         -24.6495   50.9197   -8.1189 N.ar    1  UNL1       -0.3523
     47 C         -23.8230   51.4406   -9.0428 C.ar    1  UNL1        0.0564
     48 C         -22.4692   51.7368   -8.8930 C.ar    1  UNL1        0.0198
     49 H         -24.4156   50.6703   -7.1322 H       1  UNL1        0.1660
     50 C         -19.3537   52.2006  -11.0334 C.3     1  UNL1        0.0773
     51 C         -20.2996   52.4926   -9.9079 C.2     1  UNL1        0.1735
     52 O         -19.8358   52.9853   -8.8437 O.2     1  UNL1       -0.2913
@<TRIPOS>BOND
     1    50    51    1
     2    51    52    2
     3    51    40    1
     4    40    41   ar
     5    41    42   ar
     6    42    43   ar
     7    43    44   ar
     8    44    39    1
     9    39    28    1
    10    28     1    1
    11     1     2   am
    12     2     3    2
    13     2     5    1
    14     5     6   ar
    15     6     7   ar
    16     7     8   ar
    17     8    12    1
    18    12    13    1
    19    13    14    1
    20    14    15    1
    21    15    18    1
    22    18    19   ar
    23    19    20   ar
    24    20    21   ar
    25    21    24    1
    26    24    25    1
    27    24    26    1
    28    24    27    1
    29    21    22   ar
    30    22    23   ar
    31    15    16    1
    32    16    17    1
    33     8     9   ar
    34     9    10   ar
    35    10    11    1
    36    28    29    1
    37    29    30    2
    38    29    31   am
    39    31    33    1
    40    33    34   ar
    41    34    35   ar
    42    35    36   ar
    43    36    37   ar
    44    37    38   ar
    45    44    45   ar
    46    45    46   ar
    47    46    47   ar
    48    47    48   ar
    49    48    40   ar
    50    47    43   ar
    51    10     5   ar
    52    38    33   ar
    53    17    12    1
    54    23    18   ar
    55     1     4    1
    56    31    32    1
    57    46    49    1
