@<TRIPOS>MOLECULE
*****
 35 38 0 0 0
SMALL
GASTEIGER

@<TRIPOS>ATOM
      1 N         -10.5397  -11.5104   32.8420 N.am    1  UNL1       -0.2685
      2 C          -9.3449  -11.0421   33.4831 C.2     1  UNL1        0.2672
      3 O          -9.1780  -11.2547   34.7143 O.2     1  UNL1       -0.2682
      4 C          -8.3437  -10.2870   32.7066 C.ar    1  UNL1        0.1352
      5 C          -7.5001  -10.9246   31.7877 C.ar    1  UNL1        0.0238
      6 C          -6.5369  -10.1760   31.0995 C.ar    1  UNL1        0.0036
      7 C          -5.6804  -10.7987   30.1778 C.ar    1  UNL1        0.0001
      8 C          -4.7186  -10.0502   29.4962 C.ar    1  UNL1        0.0000
      9 C          -4.6034   -8.6784   29.7280 C.ar    1  UNL1        0.0001
     10 C          -5.4487   -8.0445   30.6428 C.ar    1  UNL1        0.0020
     11 C          -6.4242   -8.7839   31.3385 C.ar    1  UNL1        0.0241
     12 C          -7.2970   -8.1866   32.2705 C.ar    1  UNL1        0.1154
     13 BR         -7.2474   -6.3177   32.6926 Br      1  UNL1       -0.0280
     14 N          -8.2165   -8.9496   32.9157 N.ar    1  UNL1       -0.2341
     15 C         -10.4732  -12.6829   30.6471 C.3     1  UNL1        0.0265
     16 C         -10.5144  -12.8246   32.1767 C.3     1  UNL1        0.1007
     17 C         -11.6437  -13.7056   32.6916 C.ar    1  UNL1        0.0234
     18 C         -12.7803  -13.9967   31.9076 C.ar    1  UNL1        0.0019
     19 C         -13.8212  -14.7727   32.4249 C.ar    1  UNL1        0.0295
     20 C         -13.7525  -15.2579   33.7315 C.ar    1  UNL1        0.1424
     21 F         -14.7654  -16.0085   34.2306 F       1  UNL1       -0.2041
     22 C         -12.6442  -14.9628   34.5266 C.ar    1  UNL1        0.0590
     23 C         -11.5981  -14.1870   34.0173 C.ar    1  UNL1        0.1399
     24 F         -10.5424  -13.9037   34.8223 F       1  UNL1       -0.2044
     25 C         -11.7800  -10.7442   33.0326 C.3     1  UNL1        0.1207
     26 C         -11.8310   -9.5851   32.0701 C.ar    1  UNL1       -0.0021
     27 C         -12.6909   -8.5035   32.3144 C.ar    1  UNL1       -0.0026
     28 C         -12.6732   -7.3873   31.4766 C.ar    1  UNL1       -0.0001
     29 C         -11.7931   -7.3357   30.3934 C.ar    1  UNL1        0.0064
     30 C         -10.9190   -8.4063   30.1353 C.ar    1  UNL1        0.0752
     31 C         -10.9458   -9.5292   30.9812 C.ar    1  UNL1        0.0038
     32 C          -9.9727   -8.3500   28.9995 C.2     1  UNL1        0.3380
     33 O          -8.8227   -7.8554   29.1502 O.2     1  UNL1       -0.2451
     34 O         -10.3421   -8.8477   27.7526 O.3     1  UNL1       -0.4771
     35 H          -9.7004   -8.8179   26.9694 H       1  UNL1        0.2954
@<TRIPOS>BOND
     1    15    16    1
     2    16    17    1
     3    17    18   ar
     4    18    19   ar
     5    19    20   ar
     6    20    21    1
     7    20    22   ar
     8    22    23   ar
     9    23    24    1
    10    16     1    1
    11     1    25    1
    12    25    26    1
    13    26    27   ar
    14    27    28   ar
    15    28    29   ar
    16    29    30   ar
    17    30    32    1
    18    32    33    2
    19    32    34    1
    20    30    31   ar
    21     1     2   am
    22     2     3    2
    23     2     4    1
    24     4     5   ar
    25     5     6   ar
    26     6     7   ar
    27     7     8   ar
    28     8     9   ar
    29     9    10   ar
    30    10    11   ar
    31    11    12   ar
    32    12    13    1
    33    12    14   ar
    34    23    17   ar
    35    31    26   ar
    36    14     4   ar
    37    11     6   ar
    38    34    35    1
@<TRIPOS>MOLECULE
*****
 35 38 0 0 0
SMALL
GASTEIGER

@<TRIPOS>ATOM
      1 N         -10.4902  -11.5896   32.9025 N.am    1  UNL1       -0.2685
      2 C          -9.2881  -11.1989   33.5808 C.2     1  UNL1        0.2672
      3 O          -9.1439  -11.4842   34.8001 O.2     1  UNL1       -0.2682
      4 C          -8.2521  -10.4380   32.8575 C.ar    1  UNL1        0.1352
      5 C          -7.8585   -9.1606   33.2766 C.ar    1  UNL1        0.0238
      6 C          -6.8987   -8.4566   32.5383 C.ar    1  UNL1        0.0036
      7 C          -6.4949   -7.1739   32.9411 C.ar    1  UNL1        0.0001
      8 C          -5.5406   -6.4732   32.2006 C.ar    1  UNL1        0.0000
      9 C          -4.9832   -7.0445   31.0553 C.ar    1  UNL1        0.0001
     10 C          -5.3754   -8.3206   30.6417 C.ar    1  UNL1        0.0020
     11 C          -6.3360   -9.0412   31.3765 C.ar    1  UNL1        0.0241
     12 C          -6.7619  -10.3300   30.9960 C.ar    1  UNL1        0.1154
     13 BR         -6.0883  -11.2324   29.4451 Br      1  UNL1       -0.0280
     14 N          -7.6949  -10.9773   31.7406 N.ar    1  UNL1       -0.2341
     15 C         -10.4702  -12.6411   30.6462 C.3     1  UNL1        0.0265
     16 C         -10.5019  -12.8655   32.1661 C.3     1  UNL1        0.1007
     17 C         -11.6474  -13.7469   32.6432 C.ar    1  UNL1        0.0234
     18 C         -12.7771  -14.0038   31.8376 C.ar    1  UNL1        0.0019
     19 C         -13.8331  -14.7814   32.3209 C.ar    1  UNL1        0.0295
     20 C         -13.7865  -15.3021   33.6147 C.ar    1  UNL1        0.1424
     21 F         -14.8139  -16.0539   34.0809 F       1  UNL1       -0.2041
     22 C         -12.6851  -15.0411   34.4312 C.ar    1  UNL1        0.0590
     23 C         -11.6240  -14.2640   33.9559 C.ar    1  UNL1        0.1399
     24 F         -10.5756  -14.0145   34.7813 F       1  UNL1       -0.2044
     25 C         -11.7058  -10.7920   33.1219 C.3     1  UNL1        0.1207
     26 C         -11.7707   -9.6559   32.1332 C.ar    1  UNL1       -0.0021
     27 C         -12.6480   -8.5824   32.3497 C.ar    1  UNL1       -0.0026
     28 C         -12.6439   -7.4853   31.4869 C.ar    1  UNL1       -0.0001
     29 C         -11.7605   -7.4447   30.4060 C.ar    1  UNL1        0.0064
     30 C         -10.8691   -8.5073   30.1755 C.ar    1  UNL1        0.0752
     31 C         -10.8821   -9.6110   31.0465 C.ar    1  UNL1        0.0038
     32 C          -9.9192   -8.4622   29.0421 C.2     1  UNL1        0.3380
     33 O          -8.7312   -8.0787   29.2193 O.2     1  UNL1       -0.2451
     34 O         -10.3277   -8.8479   27.7680 O.3     1  UNL1       -0.4771
     35 H          -9.6842   -8.8248   26.9860 H       1  UNL1        0.2954
@<TRIPOS>BOND
     1    15    16    1
     2    16    17    1
     3    17    18   ar
     4    18    19   ar
     5    19    20   ar
     6    20    21    1
     7    20    22   ar
     8    22    23   ar
     9    23    24    1
    10    16     1    1
    11     1    25    1
    12    25    26    1
    13    26    27   ar
    14    27    28   ar
    15    28    29   ar
    16    29    30   ar
    17    30    32    1
    18    32    33    2
    19    32    34    1
    20    30    31   ar
    21     1     2   am
    22     2     3    2
    23     2     4    1
    24     4     5   ar
    25     5     6   ar
    26     6     7   ar
    27     7     8   ar
    28     8     9   ar
    29     9    10   ar
    30    10    11   ar
    31    11    12   ar
    32    12    13    1
    33    12    14   ar
    34    23    17   ar
    35    31    26   ar
    36    14     4   ar
    37    11     6   ar
    38    34    35    1
@<TRIPOS>MOLECULE
*****
 35 38 0 0 0
SMALL
GASTEIGER

@<TRIPOS>ATOM
      1 N          -9.0623   -9.6663   31.3459 N.am    1  UNL1       -0.2685
      2 C         -10.3877   -9.9027   31.8411 C.2     1  UNL1        0.2672
      3 O         -11.2807   -9.0313   31.6622 O.2     1  UNL1       -0.2682
      4 C         -10.6828  -11.1422   32.5841 C.ar    1  UNL1        0.1352
      5 C         -11.7929  -11.9361   32.2679 C.ar    1  UNL1        0.0238
      6 C         -12.0584  -13.0849   33.0240 C.ar    1  UNL1        0.0036
      7 C         -13.1683  -13.8903   32.7240 C.ar    1  UNL1        0.0001
      8 C         -13.4323  -15.0329   33.4822 C.ar    1  UNL1        0.0000
      9 C         -12.5940  -15.3800   34.5432 C.ar    1  UNL1        0.0001
     10 C         -11.4854  -14.5878   34.8540 C.ar    1  UNL1        0.0020
     11 C         -11.2042  -13.4327   34.0998 C.ar    1  UNL1        0.0241
     12 C         -10.0982  -12.6041   34.3781 C.ar    1  UNL1        0.1154
     13 BR         -8.8693  -12.9546   35.8065 Br      1  UNL1       -0.0280
     14 N          -9.8776  -11.4995   33.6198 N.ar    1  UNL1       -0.2341
     15 C          -9.2933  -11.5851   29.7768 C.3     1  UNL1        0.0265
     16 C          -8.7033  -10.1863   30.0151 C.3     1  UNL1        0.1007
     17 C          -7.2000  -10.0971   29.7946 C.ar    1  UNL1        0.0234
     18 C          -6.6430   -9.3302   28.7492 C.ar    1  UNL1        0.0019
     19 C          -5.2606   -9.3037   28.5453 C.ar    1  UNL1        0.0295
     20 C          -4.4153  -10.0490   29.3684 C.ar    1  UNL1        0.1424
     21 F          -3.0749  -10.0226   29.1661 F       1  UNL1       -0.2041
     22 C          -4.9518  -10.8280   30.3947 C.ar    1  UNL1        0.0590
     23 C          -6.3338  -10.8605   30.6059 C.ar    1  UNL1        0.1399
     24 F          -6.8247  -11.6418   31.6015 F       1  UNL1       -0.2044
     25 C          -8.1837   -8.7653   32.1062 C.3     1  UNL1        0.1207
     26 C          -8.1915   -7.3881   31.4931 C.ar    1  UNL1       -0.0021
     27 C          -6.9834   -6.7127   31.2621 C.ar    1  UNL1       -0.0026
     28 C          -6.9808   -5.4786   30.6101 C.ar    1  UNL1       -0.0001
     29 C          -8.1805   -4.9109   30.1755 C.ar    1  UNL1        0.0064
     30 C          -9.4010   -5.5747   30.3916 C.ar    1  UNL1        0.0752
     31 C          -9.3960   -6.8155   31.0531 C.ar    1  UNL1        0.0038
     32 C         -10.6733   -4.9864   29.9184 C.2     1  UNL1        0.3380
     33 O         -10.7343   -3.7678   29.6003 O.2     1  UNL1       -0.2451
     34 O         -11.8161   -5.7754   29.8153 O.3     1  UNL1       -0.4771
     35 H         -12.6912   -5.3836   29.4884 H       1  UNL1        0.2954
@<TRIPOS>BOND
     1    15    16    1
     2    16    17    1
     3    17    18   ar
     4    18    19   ar
     5    19    20   ar
     6    20    21    1
     7    20    22   ar
     8    22    23   ar
     9    23    24    1
    10    16     1    1
    11     1    25    1
    12    25    26    1
    13    26    27   ar
    14    27    28   ar
    15    28    29   ar
    16    29    30   ar
    17    30    32    1
    18    32    33    2
    19    32    34    1
    20    30    31   ar
    21     1     2   am
    22     2     3    2
    23     2     4    1
    24     4     5   ar
    25     5     6   ar
    26     6     7   ar
    27     7     8   ar
    28     8     9   ar
    29     9    10   ar
    30    10    11   ar
    31    11    12   ar
    32    12    13    1
    33    12    14   ar
    34    23    17   ar
    35    31    26   ar
    36    14     4   ar
    37    11     6   ar
    38    34    35    1
@<TRIPOS>MOLECULE
*****
 35 38 0 0 0
SMALL
GASTEIGER

@<TRIPOS>ATOM
      1 N          -9.8216   -8.8981   31.2033 N.am    1  UNL1       -0.2685
      2 C         -11.0883   -9.5257   31.4472 C.2     1  UNL1        0.2672
      3 O         -12.1424   -8.9789   31.0245 O.2     1  UNL1       -0.2682
      4 C         -11.1483  -10.7810   32.2192 C.ar    1  UNL1        0.1352
      5 C         -12.1881  -11.7017   32.0360 C.ar    1  UNL1        0.0238
      6 C         -12.2279  -12.8634   32.8176 C.ar    1  UNL1        0.0036
      7 C         -13.2644  -13.7952   32.6504 C.ar    1  UNL1        0.0001
      8 C         -13.3032  -14.9505   33.4339 C.ar    1  UNL1        0.0000
      9 C         -12.3115  -15.1847   34.3881 C.ar    1  UNL1        0.0001
     10 C         -11.2735  -14.2660   34.5662 C.ar    1  UNL1        0.0020
     11 C         -11.2187  -13.0962   33.7847 C.ar    1  UNL1        0.0241
     12 C         -10.1914  -12.1420   33.9307 C.ar    1  UNL1        0.1154
     13 BR         -8.7709  -12.3297   35.2037 Br      1  UNL1       -0.0280
     14 N         -10.1910  -11.0295   33.1523 N.ar    1  UNL1       -0.2341
     15 C          -9.8995  -10.1444   29.0498 C.3     1  UNL1        0.0265
     16 C          -9.0492   -9.3059   30.0169 C.3     1  UNL1        0.1007
     17 C          -7.7421   -9.9660   30.4317 C.ar    1  UNL1        0.0234
     18 C          -7.6376  -10.7431   31.6050 C.ar    1  UNL1        0.0019
     19 C          -6.4124  -11.2997   31.9824 C.ar    1  UNL1        0.0295
     20 C          -5.2732  -11.0805   31.2069 C.ar    1  UNL1        0.1424
     21 F          -4.0859  -11.6202   31.5776 F       1  UNL1       -0.2041
     22 C          -5.3555  -10.2982   30.0541 C.ar    1  UNL1        0.0590
     23 C          -6.5772   -9.7372   29.6689 C.ar    1  UNL1        0.1399
     24 F          -6.6196   -8.9672   28.5518 F       1  UNL1       -0.2044
     25 C          -9.4365   -7.7541   32.0427 C.3     1  UNL1        0.1207
     26 C          -8.0643   -7.2625   31.6582 C.ar    1  UNL1       -0.0021
     27 C          -7.8857   -6.5210   30.4804 C.ar    1  UNL1       -0.0026
     28 C          -6.6351   -5.9852   30.1692 C.ar    1  UNL1       -0.0001
     29 C          -5.5540   -6.1765   31.0323 C.ar    1  UNL1        0.0064
     30 C          -5.7138   -6.9111   32.2205 C.ar    1  UNL1        0.0752
     31 C          -6.9756   -7.4514   32.5251 C.ar    1  UNL1        0.0038
     32 C          -4.5765   -7.1026   33.1472 C.2     1  UNL1        0.3380
     33 O          -3.4812   -6.5115   32.9450 O.2     1  UNL1       -0.2451
     34 O          -4.7067   -7.9352   34.2557 O.3     1  UNL1       -0.4771
     35 H          -3.9356   -8.0700   34.8987 H       1  UNL1        0.2954
@<TRIPOS>BOND
     1    15    16    1
     2    16    17    1
     3    17    18   ar
     4    18    19   ar
     5    19    20   ar
     6    20    21    1
     7    20    22   ar
     8    22    23   ar
     9    23    24    1
    10    16     1    1
    11     1    25    1
    12    25    26    1
    13    26    27   ar
    14    27    28   ar
    15    28    29   ar
    16    29    30   ar
    17    30    32    1
    18    32    33    2
    19    32    34    1
    20    30    31   ar
    21     1     2   am
    22     2     3    2
    23     2     4    1
    24     4     5   ar
    25     5     6   ar
    26     6     7   ar
    27     7     8   ar
    28     8     9   ar
    29     9    10   ar
    30    10    11   ar
    31    11    12   ar
    32    12    13    1
    33    12    14   ar
    34    23    17   ar
    35    31    26   ar
    36    14     4   ar
    37    11     6   ar
    38    34    35    1
@<TRIPOS>MOLECULE
*****
 35 38 0 0 0
SMALL
GASTEIGER

@<TRIPOS>ATOM
      1 N         -10.5301  -10.7443   30.5082 N.am    1  UNL1       -0.2685
      2 C         -10.4615   -9.7975   29.4328 C.2     1  UNL1        0.2672
      3 O         -10.9690  -10.0896   28.3165 O.2     1  UNL1       -0.2682
      4 C          -9.7684   -8.5108   29.6315 C.ar    1  UNL1        0.1352
      5 C          -8.3732   -8.4420   29.7378 C.ar    1  UNL1        0.0238
      6 C          -7.7579   -7.2044   29.9650 C.ar    1  UNL1        0.0036
      7 C          -6.3614   -7.1170   30.0780 C.ar    1  UNL1        0.0001
      8 C          -5.7515   -5.8821   30.3083 C.ar    1  UNL1        0.0000
      9 C          -6.5274   -4.7277   30.4278 C.ar    1  UNL1        0.0001
     10 C          -7.9188   -4.7990   30.3178 C.ar    1  UNL1        0.0020
     11 C          -8.5503   -6.0358   30.0854 C.ar    1  UNL1        0.0241
     12 C          -9.9500   -6.1548   29.9687 C.ar    1  UNL1        0.1154
     13 BR        -11.1373   -4.6577   30.1180 Br      1  UNL1       -0.0280
     14 N         -10.5054   -7.3742   29.7484 N.ar    1  UNL1       -0.2341
     15 C         -11.4864   -9.4226   32.3884 C.3     1  UNL1        0.0265
     16 C         -11.6435  -10.6428   31.4676 C.3     1  UNL1        0.1007
     17 C         -11.8351  -11.9605   32.2047 C.ar    1  UNL1        0.0234
     18 C         -10.9686  -12.3692   33.2407 C.ar    1  UNL1        0.0019
     19 C         -11.1444  -13.6054   33.8686 C.ar    1  UNL1        0.0295
     20 C         -12.1745  -14.4567   33.4665 C.ar    1  UNL1        0.1424
     21 F         -12.3405  -15.6561   34.0765 F       1  UNL1       -0.2041
     22 C         -13.0283  -14.0757   32.4304 C.ar    1  UNL1        0.0590
     23 C         -12.8597  -12.8407   31.7964 C.ar    1  UNL1        0.1399
     24 F         -13.6963  -12.5078   30.7805 F       1  UNL1       -0.2044
     25 C          -9.5938  -11.8780   30.5005 C.3     1  UNL1        0.1207
     26 C          -8.1934  -11.4009   30.7894 C.ar    1  UNL1       -0.0021
     27 C          -7.7685  -11.2239   32.1150 C.ar    1  UNL1       -0.0026
     28 C          -6.4458  -10.8726   32.3889 C.ar    1  UNL1       -0.0001
     29 C          -5.5333  -10.7026   31.3454 C.ar    1  UNL1        0.0064
     30 C          -5.9376  -10.8816   30.0107 C.ar    1  UNL1        0.0752
     31 C          -7.2728  -11.2312   29.7424 C.ar    1  UNL1        0.0038
     32 C          -4.9713  -10.7196   28.9021 C.2     1  UNL1        0.3380
     33 O          -3.8141  -10.2706   29.1239 O.2     1  UNL1       -0.2451
     34 O          -5.3298  -11.0666   27.6021 O.3     1  UNL1       -0.4771
     35 H          -4.6745  -10.9636   26.8365 H       1  UNL1        0.2954
@<TRIPOS>BOND
     1    15    16    1
     2    16    17    1
     3    17    18   ar
     4    18    19   ar
     5    19    20   ar
     6    20    21    1
     7    20    22   ar
     8    22    23   ar
     9    23    24    1
    10    16     1    1
    11     1    25    1
    12    25    26    1
    13    26    27   ar
    14    27    28   ar
    15    28    29   ar
    16    29    30   ar
    17    30    32    1
    18    32    33    2
    19    32    34    1
    20    30    31   ar
    21     1     2   am
    22     2     3    2
    23     2     4    1
    24     4     5   ar
    25     5     6   ar
    26     6     7   ar
    27     7     8   ar
    28     8     9   ar
    29     9    10   ar
    30    10    11   ar
    31    11    12   ar
    32    12    13    1
    33    12    14   ar
    34    23    17   ar
    35    31    26   ar
    36    14     4   ar
    37    11     6   ar
    38    34    35    1
@<TRIPOS>MOLECULE
*****
 35 38 0 0 0
SMALL
GASTEIGER

@<TRIPOS>ATOM
      1 N         -10.4584  -10.9043   30.9032 N.am    1  UNL1       -0.2685
      2 C         -10.3742  -10.0431   29.7590 C.2     1  UNL1        0.2672
      3 O         -10.7745  -10.4600   28.6388 O.2     1  UNL1       -0.2682
      4 C          -9.7883   -8.6965   29.8961 C.ar    1  UNL1        0.1352
      5 C          -8.4145   -8.4779   29.7305 C.ar    1  UNL1        0.0238
      6 C          -7.8938   -7.1897   29.9076 C.ar    1  UNL1        0.0036
      7 C          -6.5192   -6.9526   29.7495 C.ar    1  UNL1        0.0001
      8 C          -6.0028   -5.6678   29.9306 C.ar    1  UNL1        0.0000
      9 C          -6.8509   -4.6123   30.2704 C.ar    1  UNL1        0.0001
     10 C          -8.2215   -4.8329   30.4315 C.ar    1  UNL1        0.0020
     11 C          -8.7591   -6.1218   30.2524 C.ar    1  UNL1        0.0241
     12 C         -10.1344   -6.3905   30.4056 C.ar    1  UNL1        0.1154
     13 BR        -11.4117   -5.0412   30.8763 Br      1  UNL1       -0.0280
     14 N         -10.5971   -7.6542   30.2246 N.ar    1  UNL1       -0.2341
     15 C         -11.5348   -9.6354   32.7547 C.3     1  UNL1        0.0265
     16 C         -11.6454  -10.8105   31.7707 C.3     1  UNL1        0.1007
     17 C         -11.9321  -12.1520   32.4301 C.ar    1  UNL1        0.0234
     18 C         -11.1428  -12.6466   33.4902 C.ar    1  UNL1        0.0019
     19 C         -11.4043  -13.9021   34.0456 C.ar    1  UNL1        0.0295
     20 C         -12.4440  -14.6877   33.5465 C.ar    1  UNL1        0.1424
     21 F         -12.6931  -15.9062   34.0864 F       1  UNL1       -0.2041
     22 C         -13.2217  -14.2214   32.4856 C.ar    1  UNL1        0.0590
     23 C         -12.9672  -12.9664   31.9237 C.ar    1  UNL1        0.1399
     24 F         -13.7309  -12.5497   30.8816 F       1  UNL1       -0.2044
     25 C          -9.4484  -11.9617   31.0565 C.3     1  UNL1        0.1207
     26 C          -8.0786  -11.3553   31.2253 C.ar    1  UNL1       -0.0021
     27 C          -7.0167  -11.7747   30.4095 C.ar    1  UNL1       -0.0026
     28 C          -5.7716  -11.1505   30.4992 C.ar    1  UNL1       -0.0001
     29 C          -5.5760  -10.0981   31.3961 C.ar    1  UNL1        0.0064
     30 C          -6.6290   -9.6587   32.2177 C.ar    1  UNL1        0.0752
     31 C          -7.8793  -10.2953   32.1248 C.ar    1  UNL1        0.0038
     32 C          -6.4327   -8.5331   33.1576 C.2     1  UNL1        0.3380
     33 O          -7.4216   -7.8785   33.5857 O.2     1  UNL1       -0.2451
     34 O          -5.1521   -8.1886   33.5825 O.3     1  UNL1       -0.4771
     35 H          -5.0069   -7.4224   34.2291 H       1  UNL1        0.2954
@<TRIPOS>BOND
     1    15    16    1
     2    16    17    1
     3    17    18   ar
     4    18    19   ar
     5    19    20   ar
     6    20    21    1
     7    20    22   ar
     8    22    23   ar
     9    23    24    1
    10    16     1    1
    11     1    25    1
    12    25    26    1
    13    26    27   ar
    14    27    28   ar
    15    28    29   ar
    16    29    30   ar
    17    30    32    1
    18    32    33    2
    19    32    34    1
    20    30    31   ar
    21     1     2   am
    22     2     3    2
    23     2     4    1
    24     4     5   ar
    25     5     6   ar
    26     6     7   ar
    27     7     8   ar
    28     8     9   ar
    29     9    10   ar
    30    10    11   ar
    31    11    12   ar
    32    12    13    1
    33    12    14   ar
    34    23    17   ar
    35    31    26   ar
    36    14     4   ar
    37    11     6   ar
    38    34    35    1
@<TRIPOS>MOLECULE
*****
 35 38 0 0 0
SMALL
GASTEIGER

@<TRIPOS>ATOM
      1 N         -10.1967   -7.7674   30.6445 N.am    1  UNL1       -0.2685
      2 C          -9.5389   -8.3646   29.5182 C.2     1  UNL1        0.2672
      3 O         -10.0785   -8.3023   28.3807 O.2     1  UNL1       -0.2682
      4 C          -8.2603   -9.0751   29.7076 C.ar    1  UNL1        0.1352
      5 C          -7.9427   -9.6949   30.9231 C.ar    1  UNL1        0.0238
      6 C          -6.7011  -10.3256   31.0731 C.ar    1  UNL1        0.0036
      7 C          -6.3641  -10.9485   32.2852 C.ar    1  UNL1        0.0001
      8 C          -5.1239  -11.5731   32.4327 C.ar    1  UNL1        0.0000
      9 C          -4.2122  -11.5811   31.3756 C.ar    1  UNL1        0.0001
     10 C          -4.5334  -10.9650   30.1629 C.ar    1  UNL1        0.0020
     11 C          -5.7794  -10.3308   29.9968 C.ar    1  UNL1        0.0241
     12 C          -6.1452   -9.6963   28.7924 C.ar    1  UNL1        0.1154
     13 BR         -4.9922   -9.6237   27.2631 Br      1  UNL1       -0.0280
     14 N          -7.3591   -9.0966   28.6897 N.ar    1  UNL1       -0.2341
     15 C         -10.5517   -5.3572   30.1328 C.3     1  UNL1        0.0265
     16 C          -9.8387   -6.3888   31.0210 C.3     1  UNL1        0.1007
     17 C          -8.3264   -6.2260   31.0760 C.ar    1  UNL1        0.0234
     18 C          -7.6105   -5.5540   30.0624 C.ar    1  UNL1        0.0019
     19 C          -6.2173   -5.4594   30.1192 C.ar    1  UNL1        0.0295
     20 C          -5.5166   -6.0424   31.1759 C.ar    1  UNL1        0.1424
     21 F          -4.1649   -5.9506   31.2262 F       1  UNL1       -0.2041
     22 C          -6.2081   -6.7272   32.1762 C.ar    1  UNL1        0.0590
     23 C          -7.6021   -6.8269   32.1274 C.ar    1  UNL1        0.1399
     24 F          -8.2429   -7.5146   33.1068 F       1  UNL1       -0.2044
     25 C         -11.3222   -8.4877   31.2578 C.3     1  UNL1        0.1207
     26 C         -10.9540   -9.9307   31.4911 C.ar    1  UNL1       -0.0021
     27 C         -11.0479  -10.8602   30.4442 C.ar    1  UNL1       -0.0026
     28 C         -10.6198  -12.1755   30.6305 C.ar    1  UNL1       -0.0001
     29 C         -10.0871  -12.5739   31.8585 C.ar    1  UNL1        0.0064
     30 C          -9.9786  -11.6561   32.9181 C.ar    1  UNL1        0.0752
     31 C         -10.4160  -10.3339   32.7242 C.ar    1  UNL1        0.0038
     32 C          -9.3994  -12.0678   34.2158 C.2     1  UNL1        0.3380
     33 O          -9.8395  -13.0844   34.8180 O.2     1  UNL1       -0.2451
     34 O          -8.3580  -11.3378   34.7829 O.3     1  UNL1       -0.4771
     35 H          -7.9514  -11.6135   35.6689 H       1  UNL1        0.2954
@<TRIPOS>BOND
     1    15    16    1
     2    16    17    1
     3    17    18   ar
     4    18    19   ar
     5    19    20   ar
     6    20    21    1
     7    20    22   ar
     8    22    23   ar
     9    23    24    1
    10    16     1    1
    11     1    25    1
    12    25    26    1
    13    26    27   ar
    14    27    28   ar
    15    28    29   ar
    16    29    30   ar
    17    30    32    1
    18    32    33    2
    19    32    34    1
    20    30    31   ar
    21     1     2   am
    22     2     3    2
    23     2     4    1
    24     4     5   ar
    25     5     6   ar
    26     6     7   ar
    27     7     8   ar
    28     8     9   ar
    29     9    10   ar
    30    10    11   ar
    31    11    12   ar
    32    12    13    1
    33    12    14   ar
    34    23    17   ar
    35    31    26   ar
    36    14     4   ar
    37    11     6   ar
    38    34    35    1
@<TRIPOS>MOLECULE
*****
 35 38 0 0 0
SMALL
GASTEIGER

@<TRIPOS>ATOM
      1 N         -10.5611  -10.7744   31.7379 N.am    1  UNL1       -0.2685
      2 C          -9.2590  -11.3000   31.4446 C.2     1  UNL1        0.2672
      3 O          -9.1085  -12.5445   31.3118 O.2     1  UNL1       -0.2682
      4 C          -8.1061  -10.3862   31.3380 C.ar    1  UNL1        0.1352
      5 C          -7.7668   -9.5145   32.3808 C.ar    1  UNL1        0.0238
      6 C          -6.6875   -8.6357   32.2229 C.ar    1  UNL1        0.0036
      7 C          -6.3354   -7.7525   33.2556 C.ar    1  UNL1        0.0001
      8 C          -5.2613   -6.8750   33.0935 C.ar    1  UNL1        0.0000
      9 C          -4.5320   -6.8711   31.9032 C.ar    1  UNL1        0.0001
     10 C          -4.8708   -7.7444   30.8659 C.ar    1  UNL1        0.0020
     11 C          -5.9506   -8.6359   31.0126 C.ar    1  UNL1        0.0241
     12 C          -6.3284   -9.5331   29.9930 C.ar    1  UNL1        0.1154
     13 BR         -5.4229   -9.6322   28.3066 Br      1  UNL1       -0.0280
     14 N          -7.3813  -10.3681   30.1878 N.ar    1  UNL1       -0.2341
     15 C         -11.1551  -11.1560   29.3508 C.3     1  UNL1        0.0265
     16 C         -11.4096  -10.3273   30.6196 C.3     1  UNL1        0.1007
     17 C         -11.2808   -8.8240   30.4196 C.ar    1  UNL1        0.0234
     18 C         -10.3077   -8.2654   29.5638 C.ar    1  UNL1        0.0019
     19 C         -10.1855   -6.8791   29.4351 C.ar    1  UNL1        0.0295
     20 C         -11.0189   -6.0303   30.1647 C.ar    1  UNL1        0.1424
     21 F         -10.8957   -4.6859   30.0389 F       1  UNL1       -0.2041
     22 C         -11.9735   -6.5665   31.0301 C.ar    1  UNL1        0.0590
     23 C         -12.1027   -7.9524   31.1652 C.ar    1  UNL1        0.1399
     24 F         -13.0293   -8.4414   32.0284 F       1  UNL1       -0.2044
     25 C         -11.0588  -10.8732   33.1179 C.3     1  UNL1        0.1207
     26 C         -11.1887  -12.3191   33.5241 C.ar    1  UNL1       -0.0021
     27 C         -10.4172  -12.8263   34.5808 C.ar    1  UNL1       -0.0026
     28 C         -10.6019  -14.1381   35.0203 C.ar    1  UNL1       -0.0001
     29 C         -11.5620  -14.9529   34.4165 C.ar    1  UNL1        0.0064
     30 C         -12.3496  -14.4615   33.3605 C.ar    1  UNL1        0.0752
     31 C         -12.1548  -13.1404   32.9204 C.ar    1  UNL1        0.0038
     32 C         -13.3801  -15.3144   32.7283 C.2     1  UNL1        0.3380
     33 O         -13.2099  -15.7641   31.5627 O.2     1  UNL1       -0.2451
     34 O         -14.5473  -15.6329   33.4177 O.3     1  UNL1       -0.4771
     35 H         -15.2572  -16.2196   32.9958 H       1  UNL1        0.2954
@<TRIPOS>BOND
     1    15    16    1
     2    16    17    1
     3    17    18   ar
     4    18    19   ar
     5    19    20   ar
     6    20    21    1
     7    20    22   ar
     8    22    23   ar
     9    23    24    1
    10    16     1    1
    11     1    25    1
    12    25    26    1
    13    26    27   ar
    14    27    28   ar
    15    28    29   ar
    16    29    30   ar
    17    30    32    1
    18    32    33    2
    19    32    34    1
    20    30    31   ar
    21     1     2   am
    22     2     3    2
    23     2     4    1
    24     4     5   ar
    25     5     6   ar
    26     6     7   ar
    27     7     8   ar
    28     8     9   ar
    29     9    10   ar
    30    10    11   ar
    31    11    12   ar
    32    12    13    1
    33    12    14   ar
    34    23    17   ar
    35    31    26   ar
    36    14     4   ar
    37    11     6   ar
    38    34    35    1
@<TRIPOS>MOLECULE
*****
 35 38 0 0 0
SMALL
GASTEIGER

@<TRIPOS>ATOM
      1 N          -9.1584   -9.6636   30.8169 N.am    1  UNL1       -0.2685
      2 C          -9.2652   -9.6916   32.2472 C.2     1  UNL1        0.2672
      3 O          -8.9282   -8.6762   32.9138 O.2     1  UNL1       -0.2682
      4 C          -9.7316  -10.9163   32.9240 C.ar    1  UNL1        0.1352
      5 C         -10.8698  -11.6048   32.4846 C.ar    1  UNL1        0.0238
      6 C         -11.3004  -12.7420   33.1797 C.ar    1  UNL1        0.0036
      7 C         -12.4410  -13.4422   32.7561 C.ar    1  UNL1        0.0001
      8 C         -12.8699  -14.5734   33.4537 C.ar    1  UNL1        0.0000
      9 C         -12.1668  -15.0137   34.5765 C.ar    1  UNL1        0.0001
     10 C         -11.0296  -14.3267   35.0104 C.ar    1  UNL1        0.0020
     11 C         -10.5831  -13.1846   34.3187 C.ar    1  UNL1        0.0241
     12 C          -9.4425  -12.4604   34.7210 C.ar    1  UNL1        0.1154
     13 BR         -8.3866  -12.9454   36.2453 Br      1  UNL1       -0.0280
     14 N          -9.0598  -11.3633   34.0183 N.ar    1  UNL1       -0.2341
     15 C         -10.2403   -9.7770   28.5779 C.3     1  UNL1        0.0265
     16 C         -10.3425   -9.2805   30.0286 C.3     1  UNL1        0.1007
     17 C         -10.6117   -7.7883   30.1601 C.ar    1  UNL1        0.0234
     18 C          -9.8657   -6.8291   29.4428 C.ar    1  UNL1        0.0019
     19 C         -10.1072   -5.4637   29.6185 C.ar    1  UNL1        0.0295
     20 C         -11.0830   -5.0337   30.5185 C.ar    1  UNL1        0.1424
     21 F         -11.3129   -3.7083   30.6880 F       1  UNL1       -0.2041
     22 C         -11.8163   -5.9690   31.2501 C.ar    1  UNL1        0.0590
     23 C         -11.5813   -7.3372   31.0807 C.ar    1  UNL1        0.1399
     24 F         -12.2997   -8.2203   31.8202 F       1  UNL1       -0.2044
     25 C          -7.8297   -9.8410   30.2128 C.3     1  UNL1        0.1207
     26 C          -6.9738   -8.6264   30.4671 C.ar    1  UNL1       -0.0021
     27 C          -7.0580   -7.5141   29.6159 C.ar    1  UNL1       -0.0026
     28 C          -6.3371   -6.3535   29.9013 C.ar    1  UNL1       -0.0001
     29 C          -5.5328   -6.2884   31.0411 C.ar    1  UNL1        0.0064
     30 C          -5.4398   -7.3898   31.9101 C.ar    1  UNL1        0.0752
     31 C          -6.1657   -8.5570   31.6137 C.ar    1  UNL1        0.0038
     32 C          -4.6028   -7.3206   33.1281 C.2     1  UNL1        0.3380
     33 O          -3.5483   -6.6295   33.1401 O.2     1  UNL1       -0.2451
     34 O          -4.9749   -8.0157   34.2760 O.3     1  UNL1       -0.4771
     35 H          -4.4113   -7.9717   35.1166 H       1  UNL1        0.2954
@<TRIPOS>BOND
     1    15    16    1
     2    16    17    1
     3    17    18   ar
     4    18    19   ar
     5    19    20   ar
     6    20    21    1
     7    20    22   ar
     8    22    23   ar
     9    23    24    1
    10    16     1    1
    11     1    25    1
    12    25    26    1
    13    26    27   ar
    14    27    28   ar
    15    28    29   ar
    16    29    30   ar
    17    30    32    1
    18    32    33    2
    19    32    34    1
    20    30    31   ar
    21     1     2   am
    22     2     3    2
    23     2     4    1
    24     4     5   ar
    25     5     6   ar
    26     6     7   ar
    27     7     8   ar
    28     8     9   ar
    29     9    10   ar
    30    10    11   ar
    31    11    12   ar
    32    12    13    1
    33    12    14   ar
    34    23    17   ar
    35    31    26   ar
    36    14     4   ar
    37    11     6   ar
    38    34    35    1
