@<TRIPOS>MOLECULE
*****
 46 51 0 0 0
SMALL
GASTEIGER

@<TRIPOS>ATOM
      1 C         -71.6234  -55.6373  -21.9518 C.ar    1  UNL1        0.0702
      2 C         -72.7112  -55.6376  -21.0721 C.ar    1  UNL1        0.0191
      3 C         -72.5319  -55.9708  -19.7287 C.ar    1  UNL1        0.0356
      4 C         -71.2520  -56.3250  -19.2629 C.ar    1  UNL1        0.1318
      5 N         -70.2154  -56.3421  -20.1479 N.ar    1  UNL1       -0.2279
      6 C         -70.3659  -56.0177  -21.4590 C.ar    1  UNL1        0.1149
      7 N         -71.0205  -56.6683  -17.8752 N.pl3   1  UNL1       -0.2932
      8 C         -69.6685  -56.5921  -17.2984 C.3     1  UNL1        0.0923
      9 C         -69.6605  -55.7219  -16.0305 C.3     1  UNL1        0.0252
     10 C         -70.9557  -55.8497  -15.1820 C.3     1  UNL1        0.0472
     11 C         -71.7399  -57.1272  -15.5308 C.3     1  UNL1        0.0252
     12 C         -72.1314  -57.1165  -17.0158 C.3     1  UNL1        0.0923
     13 C         -70.6495  -55.7978  -13.6781 C.3     1  UNL1        0.2054
     14 O         -71.0019  -54.5176  -13.1572 O.3     1  UNL1       -0.4755
     15 C         -72.2628  -53.9207  -13.3023 C.ar    1  UNL1        0.1388
     16 C         -73.3169  -54.1576  -12.4012 C.ar    1  UNL1        0.0369
     17 C         -74.5497  -53.5291  -12.5836 C.ar    1  UNL1        0.0033
     18 C         -74.7467  -52.6666  -13.6639 C.ar    1  UNL1        0.0066
     19 C         -73.7105  -52.4275  -14.5837 C.ar    1  UNL1        0.0785
     20 C         -72.4670  -53.0563  -14.3856 C.ar    1  UNL1        0.0433
     21 C         -73.9323  -51.5071  -15.7257 C.2     1  UNL1        0.3381
     22 O         -75.1009  -51.3150  -16.1555 O.2     1  UNL1       -0.2451
     23 O         -72.8758  -50.8513  -16.3571 O.3     1  UNL1       -0.4771
     24 H         -71.9068  -51.0376  -16.1344 H       1  UNL1        0.2954
     25 C         -72.6527  -56.0816  -24.2297 C.2     1  UNL1        0.2839
     26 O         -73.0420  -57.2344  -23.9003 O.2     1  UNL1       -0.2665
     27 N         -71.8285  -55.3137  -23.3379 N.am    1  UNL1       -0.2766
     28 H         -71.2781  -54.5210  -23.7394 H       1  UNL1        0.1553
     29 C         -74.6247  -53.2135  -27.6017 C.ar    1  UNL1        0.0123
     30 C         -74.5970  -53.1475  -29.0108 C.ar    1  UNL1       -0.0013
     31 C         -73.8776  -54.1054  -29.7741 C.ar    1  UNL1       -0.0001
     32 C         -73.1692  -55.1336  -29.1096 C.ar    1  UNL1        0.0028
     33 C         -73.2026  -55.1660  -27.7156 C.ar    1  UNL1        0.0334
     34 C         -72.6154  -56.0214  -26.8026 C.ar    1  UNL1        0.0202
     35 C         -71.7405  -57.2044  -27.0897 C.3     1  UNL1        0.0345
     36 C         -73.0083  -55.5334  -25.5521 C.ar    1  UNL1        0.1946
     37 O         -73.7758  -54.4695  -25.7038 O.2     1  UNL1       -0.4495
     38 C         -73.9013  -54.2390  -26.9889 C.ar    1  UNL1        0.1412
     39 C         -73.8645  -54.0252  -31.2568 C.ar    1  UNL1       -0.0000
     40 C         -73.6954  -55.1864  -32.0347 C.ar    1  UNL1       -0.0000
     41 C         -73.6827  -55.1081  -33.4306 C.ar    1  UNL1       -0.0000
     42 C         -73.8392  -53.8737  -34.0650 C.ar    1  UNL1        0.0000
     43 C         -74.0081  -52.7146  -33.3046 C.ar    1  UNL1       -0.0000
     44 C         -74.0207  -52.7868  -31.9081 C.ar    1  UNL1       -0.0000
     45 C         -74.5034  -50.9179  -26.6397 C.3     1  UNL1        0.0051
     46 C         -75.3511  -52.1766  -26.7891 C.3     1  UNL1        0.0295
@<TRIPOS>BOND
     1    45    46    1
     2    46    29    1
     3    29    30   ar
     4    30    31   ar
     5    31    39    1
     6    39    40   ar
     7    40    41   ar
     8    41    42   ar
     9    42    43   ar
    10    43    44   ar
    11    31    32   ar
    12    32    33   ar
    13    33    34   ar
    14    34    35    1
    15    34    36   ar
    16    36    25    1
    17    25    26    2
    18    25    27   am
    19    27     1    1
    20     1     2   ar
    21     2     3   ar
    22     3     4   ar
    23     4     7    1
    24     7     8    1
    25     8     9    1
    26     9    10    1
    27    10    13    1
    28    13    14    1
    29    14    15    1
    30    15    16   ar
    31    16    17   ar
    32    17    18   ar
    33    18    19   ar
    34    19    21    1
    35    21    22    2
    36    21    23    1
    37    19    20   ar
    38    10    11    1
    39    11    12    1
    40     4     5   ar
    41     5     6   ar
    42    36    37   ar
    43    37    38   ar
    44    38    29   ar
    45    44    39   ar
    46    38    33   ar
    47     6     1   ar
    48    12     7    1
    49    20    15   ar
    50    27    28    1
    51    23    24    1
@<TRIPOS>MOLECULE
*****
 46 51 0 0 0
SMALL
GASTEIGER

@<TRIPOS>ATOM
      1 C         -64.4290  -52.2769  -24.7044 C.ar    1  UNL1        0.0702
      2 C         -63.7682  -52.6224  -23.5206 C.ar    1  UNL1        0.0191
      3 C         -64.2879  -53.6129  -22.6860 C.ar    1  UNL1        0.0356
      4 C         -65.4925  -54.2538  -23.0305 C.ar    1  UNL1        0.1318
      5 N         -66.1288  -53.8784  -24.1761 N.ar    1  UNL1       -0.2279
      6 C         -65.6394  -52.9196  -25.0056 C.ar    1  UNL1        0.1149
      7 N         -66.0613  -55.2931  -22.1978 N.pl3   1  UNL1       -0.2932
      8 C         -65.7810  -55.3355  -20.7535 C.3     1  UNL1        0.0923
      9 C         -67.0864  -55.3780  -19.9417 C.3     1  UNL1        0.0252
     10 C         -68.2168  -56.1947  -20.6266 C.3     1  UNL1        0.0472
     11 C         -67.6603  -57.1433  -21.7032 C.3     1  UNL1        0.0252
     12 C         -66.9199  -56.3395  -22.7823 C.3     1  UNL1        0.0923
     13 C         -69.0490  -56.9743  -19.5980 C.3     1  UNL1        0.2054
     14 O         -69.5307  -56.0848  -18.5924 O.3     1  UNL1       -0.4755
     15 C         -69.1169  -56.1020  -17.2524 C.ar    1  UNL1        0.1388
     16 C         -69.9466  -56.5614  -16.2132 C.ar    1  UNL1        0.0369
     17 C         -69.4825  -56.5691  -14.8969 C.ar    1  UNL1        0.0033
     18 C         -68.1950  -56.1159  -14.6022 C.ar    1  UNL1        0.0066
     19 C         -67.3552  -55.6397  -15.6244 C.ar    1  UNL1        0.0785
     20 C         -67.8271  -55.6463  -16.9504 C.ar    1  UNL1        0.0433
     21 C         -65.9889  -55.1632  -15.2979 C.2     1  UNL1        0.3381
     22 O         -65.8390  -54.1584  -14.5528 O.2     1  UNL1       -0.2451
     23 O         -64.8512  -55.7886  -15.8070 O.3     1  UNL1       -0.4771
     24 H         -64.8973  -56.5321  -16.4915 H       1  UNL1        0.2954
     25 C         -64.0796  -49.8342  -25.3019 C.2     1  UNL1        0.2839
     26 O         -64.9451  -49.4413  -24.4740 O.2     1  UNL1       -0.2665
     27 N         -63.8928  -51.2384  -25.5422 N.am    1  UNL1       -0.2766
     28 H         -63.4101  -51.5248  -26.4240 H       1  UNL1        0.1553
     29 C         -60.8999  -46.3056  -26.2634 C.ar    1  UNL1        0.0123
     30 C         -60.4496  -45.6432  -27.4249 C.ar    1  UNL1       -0.0013
     31 C         -60.9857  -45.9593  -28.7018 C.ar    1  UNL1       -0.0001
     32 C         -61.9775  -46.9618  -28.8104 C.ar    1  UNL1        0.0028
     33 C         -62.3935  -47.6100  -27.6475 C.ar    1  UNL1        0.0334
     34 C         -63.3168  -48.6166  -27.4374 C.ar    1  UNL1        0.0202
     35 C         -64.1597  -49.3128  -28.4632 C.3     1  UNL1        0.0345
     36 C         -63.2832  -48.8499  -26.0587 C.ar    1  UNL1        0.1946
     37 O         -62.4098  -48.0422  -25.4856 O.2     1  UNL1       -0.4495
     38 C         -61.8719  -47.2961  -26.4207 C.ar    1  UNL1        0.1412
     39 C         -60.5053  -45.2476  -29.9132 C.ar    1  UNL1       -0.0000
     40 C         -61.3768  -44.4260  -30.6532 C.ar    1  UNL1       -0.0000
     41 C         -60.9221  -43.7574  -31.7939 C.ar    1  UNL1       -0.0000
     42 C         -59.5959  -43.8998  -32.2080 C.ar    1  UNL1        0.0000
     43 C         -58.7214  -44.7117  -31.4824 C.ar    1  UNL1       -0.0000
     44 C         -59.1709  -45.3834  -30.3413 C.ar    1  UNL1       -0.0000
     45 C         -61.2303  -45.0988  -24.1083 C.3     1  UNL1        0.0051
     46 C         -60.3046  -46.0026  -24.9155 C.3     1  UNL1        0.0295
@<TRIPOS>BOND
     1    45    46    1
     2    46    29    1
     3    29    30   ar
     4    30    31   ar
     5    31    39    1
     6    39    40   ar
     7    40    41   ar
     8    41    42   ar
     9    42    43   ar
    10    43    44   ar
    11    31    32   ar
    12    32    33   ar
    13    33    34   ar
    14    34    35    1
    15    34    36   ar
    16    36    25    1
    17    25    26    2
    18    25    27   am
    19    27     1    1
    20     1     2   ar
    21     2     3   ar
    22     3     4   ar
    23     4     7    1
    24     7     8    1
    25     8     9    1
    26     9    10    1
    27    10    13    1
    28    13    14    1
    29    14    15    1
    30    15    16   ar
    31    16    17   ar
    32    17    18   ar
    33    18    19   ar
    34    19    21    1
    35    21    22    2
    36    21    23    1
    37    19    20   ar
    38    10    11    1
    39    11    12    1
    40     4     5   ar
    41     5     6   ar
    42    36    37   ar
    43    37    38   ar
    44    38    29   ar
    45    44    39   ar
    46    38    33   ar
    47     6     1   ar
    48    12     7    1
    49    20    15   ar
    50    27    28    1
    51    23    24    1
@<TRIPOS>MOLECULE
*****
 46 51 0 0 0
SMALL
GASTEIGER

@<TRIPOS>ATOM
      1 C         -64.4035  -52.2495  -24.7815 C.ar    1  UNL1        0.0702
      2 C         -63.8233  -52.4935  -23.5321 C.ar    1  UNL1        0.0191
      3 C         -64.3268  -53.4983  -22.7047 C.ar    1  UNL1        0.0356
      4 C         -65.4352  -54.2571  -23.1243 C.ar    1  UNL1        0.1318
      5 N         -65.9972  -53.9798  -24.3349 N.ar    1  UNL1       -0.2279
      6 C         -65.5214  -53.0091  -25.1585 C.ar    1  UNL1        0.1149
      7 N         -65.9830  -55.3150  -22.3010 N.pl3   1  UNL1       -0.2932
      8 C         -65.7511  -55.3317  -20.8476 C.3     1  UNL1        0.0923
      9 C         -67.0803  -55.4289  -20.0804 C.3     1  UNL1        0.0252
     10 C         -68.1468  -56.3040  -20.7951 C.3     1  UNL1        0.0472
     11 C         -67.5095  -57.2344  -21.8424 C.3     1  UNL1        0.0252
     12 C         -66.7708  -56.4057  -22.9037 C.3     1  UNL1        0.0923
     13 C         -68.9765  -57.1132  -19.7876 C.3     1  UNL1        0.2054
     14 O         -68.8703  -56.5260  -18.4921 O.3     1  UNL1       -0.4755
     15 C         -69.9296  -55.9094  -17.8103 C.ar    1  UNL1        0.1388
     16 C         -70.2565  -56.2283  -16.4796 C.ar    1  UNL1        0.0369
     17 C         -71.3134  -55.5767  -15.8420 C.ar    1  UNL1        0.0033
     18 C         -72.0562  -54.6093  -16.5218 C.ar    1  UNL1        0.0066
     19 C         -71.7545  -54.2861  -17.8565 C.ar    1  UNL1        0.0785
     20 C         -70.6798  -54.9397  -18.4880 C.ar    1  UNL1        0.0433
     21 C         -72.5501  -53.2548  -18.5663 C.2     1  UNL1        0.3381
     22 O         -73.8072  -53.2690  -18.4837 O.2     1  UNL1       -0.2451
     23 O         -71.9463  -52.2671  -19.3439 O.3     1  UNL1       -0.4771
     24 H         -70.9538  -52.2572  -19.5393 H       1  UNL1        0.2954
     25 C         -64.0472  -49.7961  -25.3290 C.2     1  UNL1        0.2839
     26 O         -64.8748  -49.4152  -24.4578 O.2     1  UNL1       -0.2665
     27 N         -63.8875  -51.1956  -25.6127 N.am    1  UNL1       -0.2766
     28 H         -63.4432  -51.4642  -26.5199 H       1  UNL1        0.1553
     29 C         -60.9559  -46.1937  -26.3049 C.ar    1  UNL1        0.0123
     30 C         -60.5088  -45.5370  -27.4709 C.ar    1  UNL1       -0.0013
     31 C         -61.0182  -45.8882  -28.7495 C.ar    1  UNL1       -0.0001
     32 C         -61.9796  -46.9202  -28.8551 C.ar    1  UNL1        0.0028
     33 C         -62.3929  -47.5617  -27.6875 C.ar    1  UNL1        0.0334
     34 C         -63.2901  -48.5909  -27.4735 C.ar    1  UNL1        0.0202
     35 C         -64.0988  -49.3268  -28.4990 C.3     1  UNL1        0.0345
     36 C         -63.2688  -48.8015  -26.0909 C.ar    1  UNL1        0.1946
     37 O         -62.4265  -47.9603  -25.5194 O.2     1  UNL1       -0.4495
     38 C         -61.8973  -47.2138  -26.4591 C.ar    1  UNL1        0.1412
     39 C         -60.5416  -45.1821  -29.9657 C.ar    1  UNL1       -0.0000
     40 C         -59.2080  -45.3184  -30.3958 C.ar    1  UNL1       -0.0000
     41 C         -58.7616  -44.6519  -31.5410 C.ar    1  UNL1       -0.0000
     42 C         -59.6385  -43.8445  -32.2689 C.ar    1  UNL1        0.0000
     43 C         -60.9639  -43.7014  -31.8527 C.ar    1  UNL1       -0.0000
     44 C         -61.4156  -44.3649  -30.7077 C.ar    1  UNL1       -0.0000
     45 C         -61.1233  -44.6640  -24.3448 C.3     1  UNL1        0.0051
     46 C         -60.3879  -45.8527  -24.9543 C.3     1  UNL1        0.0295
@<TRIPOS>BOND
     1    45    46    1
     2    46    29    1
     3    29    30   ar
     4    30    31   ar
     5    31    39    1
     6    39    40   ar
     7    40    41   ar
     8    41    42   ar
     9    42    43   ar
    10    43    44   ar
    11    31    32   ar
    12    32    33   ar
    13    33    34   ar
    14    34    35    1
    15    34    36   ar
    16    36    25    1
    17    25    26    2
    18    25    27   am
    19    27     1    1
    20     1     2   ar
    21     2     3   ar
    22     3     4   ar
    23     4     7    1
    24     7     8    1
    25     8     9    1
    26     9    10    1
    27    10    13    1
    28    13    14    1
    29    14    15    1
    30    15    16   ar
    31    16    17   ar
    32    17    18   ar
    33    18    19   ar
    34    19    21    1
    35    21    22    2
    36    21    23    1
    37    19    20   ar
    38    10    11    1
    39    11    12    1
    40     4     5   ar
    41     5     6   ar
    42    36    37   ar
    43    37    38   ar
    44    38    29   ar
    45    44    39   ar
    46    38    33   ar
    47     6     1   ar
    48    12     7    1
    49    20    15   ar
    50    27    28    1
    51    23    24    1
@<TRIPOS>MOLECULE
*****
 46 51 0 0 0
SMALL
GASTEIGER

@<TRIPOS>ATOM
      1 C         -65.8377  -53.1770  -23.4070 C.ar    1  UNL1        0.0702
      2 C         -66.8957  -53.1021  -22.4947 C.ar    1  UNL1        0.0191
      3 C         -67.9453  -54.0199  -22.5550 C.ar    1  UNL1        0.0356
      4 C         -67.9459  -55.0144  -23.5507 C.ar    1  UNL1        0.1318
      5 N         -66.9158  -55.0472  -24.4429 N.ar    1  UNL1       -0.2279
      6 C         -65.8816  -54.1665  -24.4008 C.ar    1  UNL1        0.1149
      7 N         -69.0103  -55.9918  -23.6429 N.pl3   1  UNL1       -0.2932
      8 C         -69.6161  -56.5591  -22.4273 C.3     1  UNL1        0.0923
      9 C         -71.1445  -56.3894  -22.4446 C.3     1  UNL1        0.0252
     10 C         -71.7673  -56.5202  -23.8620 C.3     1  UNL1        0.0472
     11 C         -70.8145  -57.2335  -24.8378 C.3     1  UNL1        0.0252
     12 C         -69.4984  -56.4509  -24.9561 C.3     1  UNL1        0.0923
     13 C         -73.1259  -57.2344  -23.8149 C.3     1  UNL1        0.2054
     14 O         -74.1445  -56.3682  -24.3114 O.3     1  UNL1       -0.4755
     15 C         -74.2583  -55.9607  -25.6487 C.ar    1  UNL1        0.1388
     16 C         -74.4265  -56.8762  -26.7037 C.ar    1  UNL1        0.0369
     17 C         -74.5468  -56.4182  -28.0167 C.ar    1  UNL1        0.0033
     18 C         -74.4952  -55.0502  -28.2922 C.ar    1  UNL1        0.0066
     19 C         -74.3137  -54.1200  -27.2537 C.ar    1  UNL1        0.0785
     20 C         -74.2049  -54.5897  -25.9314 C.ar    1  UNL1        0.0433
     21 C         -74.2630  -52.6694  -27.5598 C.2     1  UNL1        0.3381
     22 O         -73.5472  -51.9071  -26.8571 O.2     1  UNL1       -0.2451
     23 O         -75.0023  -52.1121  -28.6027 O.3     1  UNL1       -0.4771
     24 H         -75.6754  -52.6435  -29.1393 H       1  UNL1        0.2954
     25 C         -63.9822  -51.8139  -24.4770 C.2     1  UNL1        0.2839
     26 O         -64.0133  -52.4880  -25.5417 O.2     1  UNL1       -0.2665
     27 N         -64.7750  -52.2100  -23.3461 N.am    1  UNL1       -0.2766
     28 H         -64.5098  -51.8366  -22.4066 H       1  UNL1        0.1553
     29 C         -62.1220  -47.4160  -25.3037 C.ar    1  UNL1        0.0123
     30 C         -61.0508  -46.6601  -24.7823 C.ar    1  UNL1       -0.0013
     31 C         -60.1983  -47.1942  -23.7795 C.ar    1  UNL1       -0.0001
     32 C         -60.4352  -48.4994  -23.2888 C.ar    1  UNL1        0.0028
     33 C         -61.5098  -49.2183  -23.8122 C.ar    1  UNL1        0.0334
     34 C         -61.9909  -50.4836  -23.5337 C.ar    1  UNL1        0.0202
     35 C         -61.4520  -51.4685  -22.5403 C.3     1  UNL1        0.0345
     36 C         -63.0978  -50.6379  -24.3748 C.ar    1  UNL1        0.1946
     37 O         -63.2648  -49.5502  -25.1047 O.2     1  UNL1       -0.4495
     38 C         -62.3245  -48.6951  -24.7807 C.ar    1  UNL1        0.1412
     39 C         -59.0713  -46.3875  -23.2466 C.ar    1  UNL1       -0.0000
     40 C         -59.2139  -45.0006  -23.0507 C.ar    1  UNL1       -0.0000
     41 C         -58.1509  -44.2432  -22.5494 C.ar    1  UNL1       -0.0000
     42 C         -56.9367  -44.8592  -22.2379 C.ar    1  UNL1        0.0000
     43 C         -56.7827  -46.2342  -22.4275 C.ar    1  UNL1       -0.0000
     44 C         -57.8421  -46.9965  -22.9293 C.ar    1  UNL1       -0.0000
     45 C         -62.3341  -46.6620  -27.6694 C.3     1  UNL1        0.0051
     46 C         -63.0516  -46.8378  -26.3355 C.3     1  UNL1        0.0295
@<TRIPOS>BOND
     1    45    46    1
     2    46    29    1
     3    29    30   ar
     4    30    31   ar
     5    31    39    1
     6    39    40   ar
     7    40    41   ar
     8    41    42   ar
     9    42    43   ar
    10    43    44   ar
    11    31    32   ar
    12    32    33   ar
    13    33    34   ar
    14    34    35    1
    15    34    36   ar
    16    36    25    1
    17    25    26    2
    18    25    27   am
    19    27     1    1
    20     1     2   ar
    21     2     3   ar
    22     3     4   ar
    23     4     7    1
    24     7     8    1
    25     8     9    1
    26     9    10    1
    27    10    13    1
    28    13    14    1
    29    14    15    1
    30    15    16   ar
    31    16    17   ar
    32    17    18   ar
    33    18    19   ar
    34    19    21    1
    35    21    22    2
    36    21    23    1
    37    19    20   ar
    38    10    11    1
    39    11    12    1
    40     4     5   ar
    41     5     6   ar
    42    36    37   ar
    43    37    38   ar
    44    38    29   ar
    45    44    39   ar
    46    38    33   ar
    47     6     1   ar
    48    12     7    1
    49    20    15   ar
    50    27    28    1
    51    23    24    1
@<TRIPOS>MOLECULE
*****
 46 51 0 0 0
SMALL
GASTEIGER

@<TRIPOS>ATOM
      1 C         -64.3346  -52.0805  -24.6314 C.ar    1  UNL1        0.0702
      2 C         -63.6469  -52.4209  -23.4616 C.ar    1  UNL1        0.0191
      3 C         -64.1582  -53.3927  -22.6003 C.ar    1  UNL1        0.0356
      4 C         -65.3811  -54.0196  -22.9035 C.ar    1  UNL1        0.1318
      5 N         -66.0429  -53.6492  -24.0362 N.ar    1  UNL1       -0.2279
      6 C         -65.5622  -52.7085  -24.8912 C.ar    1  UNL1        0.1149
      7 N         -65.9423  -55.0395  -22.0420 N.pl3   1  UNL1       -0.2932
      8 C         -66.2896  -54.7342  -20.6447 C.3     1  UNL1        0.0923
      9 C         -67.7498  -55.1129  -20.3463 C.3     1  UNL1        0.0252
     10 C         -68.2260  -56.3877  -21.0960 C.3     1  UNL1        0.0472
     11 C         -67.0386  -57.2342  -21.5885 C.3     1  UNL1        0.0252
     12 C         -66.1624  -56.4088  -22.5422 C.3     1  UNL1        0.0923
     13 C         -69.1673  -57.2328  -20.2255 C.3     1  UNL1        0.2054
     14 O         -70.5093  -56.7750  -20.3801 O.3     1  UNL1       -0.4755
     15 C         -71.0957  -56.4340  -21.6077 C.ar    1  UNL1        0.1388
     16 C         -72.4396  -56.7232  -21.9072 C.ar    1  UNL1        0.0369
     17 C         -72.9788  -56.3517  -23.1398 C.ar    1  UNL1        0.0033
     18 C         -72.1872  -55.6963  -24.0852 C.ar    1  UNL1        0.0066
     19 C         -70.8381  -55.4105  -23.8108 C.ar    1  UNL1        0.0785
     20 C         -70.3058  -55.7784  -22.5609 C.ar    1  UNL1        0.0433
     21 C         -70.0090  -54.7117  -24.8230 C.2     1  UNL1        0.3381
     22 O         -70.3402  -54.7521  -26.0379 O.2     1  UNL1       -0.2451
     23 O         -68.8524  -54.0159  -24.4723 O.3     1  UNL1       -0.4771
     24 H         -68.4707  -54.0288  -23.5356 H       1  UNL1        0.2954
     25 C         -64.0276  -49.6536  -25.3110 C.2     1  UNL1        0.2839
     26 O         -64.9159  -49.2507  -24.5127 O.2     1  UNL1       -0.2665
     27 N         -63.8062  -51.0610  -25.4971 N.am    1  UNL1       -0.2766
     28 H         -63.3019  -51.3681  -26.3596 H       1  UNL1        0.1553
     29 C         -60.9001  -46.0995  -26.3467 C.ar    1  UNL1        0.0123
     30 C         -60.4467  -45.4666  -27.5234 C.ar    1  UNL1       -0.0013
     31 C         -60.9603  -45.8335  -28.7959 C.ar    1  UNL1       -0.0001
     32 C         -61.9322  -46.8572  -28.8843 C.ar    1  UNL1        0.0028
     33 C         -62.3515  -47.4753  -27.7063 C.ar    1  UNL1        0.0334
     34 C         -63.2591  -48.4915  -27.4752 C.ar    1  UNL1        0.0202
     35 C         -64.0757  -49.2360  -28.4883 C.3     1  UNL1        0.0345
     36 C         -63.2394  -48.6797  -26.0893 C.ar    1  UNL1        0.1946
     37 O         -62.3883  -47.8378  -25.5319 O.2     1  UNL1       -0.4495
     38 C         -61.8518  -47.1124  -26.4839 C.ar    1  UNL1        0.1412
     39 C         -60.4770  -45.1524  -30.0237 C.ar    1  UNL1       -0.0000
     40 C         -61.3474  -44.3512  -30.7871 C.ar    1  UNL1       -0.0000
     41 C         -60.8900  -43.7114  -31.9432 C.ar    1  UNL1       -0.0000
     42 C         -59.5623  -43.8625  -32.3495 C.ar    1  UNL1        0.0000
     43 C         -58.6890  -44.6544  -31.6007 C.ar    1  UNL1       -0.0000
     44 C         -59.1412  -45.2973  -30.4441 C.ar    1  UNL1       -0.0000
     45 C         -61.0982  -44.5827  -24.3794 C.3     1  UNL1        0.0051
     46 C         -60.3281  -45.7422  -25.0020 C.3     1  UNL1        0.0295
@<TRIPOS>BOND
     1    45    46    1
     2    46    29    1
     3    29    30   ar
     4    30    31   ar
     5    31    39    1
     6    39    40   ar
     7    40    41   ar
     8    41    42   ar
     9    42    43   ar
    10    43    44   ar
    11    31    32   ar
    12    32    33   ar
    13    33    34   ar
    14    34    35    1
    15    34    36   ar
    16    36    25    1
    17    25    26    2
    18    25    27   am
    19    27     1    1
    20     1     2   ar
    21     2     3   ar
    22     3     4   ar
    23     4     7    1
    24     7     8    1
    25     8     9    1
    26     9    10    1
    27    10    13    1
    28    13    14    1
    29    14    15    1
    30    15    16   ar
    31    16    17   ar
    32    17    18   ar
    33    18    19   ar
    34    19    21    1
    35    21    22    2
    36    21    23    1
    37    19    20   ar
    38    10    11    1
    39    11    12    1
    40     4     5   ar
    41     5     6   ar
    42    36    37   ar
    43    37    38   ar
    44    38    29   ar
    45    44    39   ar
    46    38    33   ar
    47     6     1   ar
    48    12     7    1
    49    20    15   ar
    50    27    28    1
    51    23    24    1
@<TRIPOS>MOLECULE
*****
 46 51 0 0 0
SMALL
GASTEIGER

@<TRIPOS>ATOM
      1 C         -63.9059  -51.0663  -24.2815 C.ar    1  UNL1        0.0702
      2 C         -63.1299  -51.9343  -23.5058 C.ar    1  UNL1        0.0191
      3 C         -63.6514  -53.1569  -23.0802 C.ar    1  UNL1        0.0356
      4 C         -64.9711  -53.5083  -23.4197 C.ar    1  UNL1        0.1318
      5 N         -65.7132  -52.6317  -24.1538 N.ar    1  UNL1       -0.2279
      6 C         -65.2250  -51.4379  -24.5822 C.ar    1  UNL1        0.1149
      7 N         -65.5476  -54.7710  -23.0067 N.pl3   1  UNL1       -0.2932
      8 C         -65.1082  -55.4263  -21.7642 C.3     1  UNL1        0.0923
      9 C         -66.3078  -55.7394  -20.8544 C.3     1  UNL1        0.0252
     10 C         -67.5908  -56.1386  -21.6345 C.3     1  UNL1        0.0472
     11 C         -67.2673  -56.5772  -23.0739 C.3     1  UNL1        0.0252
     12 C         -66.5750  -55.4339  -23.8304 C.3     1  UNL1        0.0923
     13 C         -68.3769  -57.2343  -20.8999 C.3     1  UNL1        0.2054
     14 O         -69.7209  -56.8057  -20.6892 O.3     1  UNL1       -0.4755
     15 C         -70.1638  -56.1084  -19.5558 C.ar    1  UNL1        0.1388
     16 C         -69.6040  -56.3095  -18.2808 C.ar    1  UNL1        0.0369
     17 C         -70.0729  -55.5810  -17.1865 C.ar    1  UNL1        0.0033
     18 C         -71.1036  -54.6529  -17.3486 C.ar    1  UNL1        0.0066
     19 C         -71.6859  -54.4473  -18.6117 C.ar    1  UNL1        0.0785
     20 C         -71.1992  -55.1778  -19.7119 C.ar    1  UNL1        0.0433
     21 C         -72.7786  -53.4567  -18.7705 C.2     1  UNL1        0.3381
     22 O         -72.5081  -52.2264  -18.7939 O.2     1  UNL1       -0.2451
     23 O         -74.1132  -53.8459  -18.8806 O.3     1  UNL1       -0.4771
     24 H         -74.4132  -54.8051  -18.7655 H       1  UNL1        0.2954
     25 C         -63.6173  -49.1920  -25.9696 C.2     1  UNL1        0.2839
     26 O         -64.1349  -49.8648  -26.9014 O.2     1  UNL1       -0.2665
     27 N         -63.3622  -49.8002  -24.6930 N.am    1  UNL1       -0.2766
     28 H         -62.6738  -49.3363  -24.0578 H       1  UNL1        0.1553
     29 C         -62.0594  -44.6849  -25.1066 C.ar    1  UNL1        0.0123
     30 C         -61.8350  -43.5294  -25.8846 C.ar    1  UNL1       -0.0013
     31 C         -62.1126  -43.5200  -27.2777 C.ar    1  UNL1       -0.0001
     32 C         -62.6103  -44.6911  -27.8951 C.ar    1  UNL1        0.0028
     33 C         -62.8091  -45.8229  -27.1043 C.ar    1  UNL1        0.0334
     34 C         -63.2641  -47.0907  -27.4134 C.ar    1  UNL1        0.0202
     35 C         -63.6867  -47.6086  -28.7552 C.3     1  UNL1        0.0345
     36 C         -63.2327  -47.7868  -26.2006 C.ar    1  UNL1        0.1946
     37 O         -62.7964  -46.9958  -25.2375 O.2     1  UNL1       -0.4495
     38 C         -62.5406  -45.8208  -25.7613 C.ar    1  UNL1        0.1412
     39 C         -61.8771  -42.2932  -28.0803 C.ar    1  UNL1       -0.0000
     40 C         -60.6699  -41.5790  -27.9583 C.ar    1  UNL1       -0.0000
     41 C         -60.4510  -40.4237  -28.7147 C.ar    1  UNL1       -0.0000
     42 C         -61.4309  -39.9691  -29.6000 C.ar    1  UNL1        0.0000
     43 C         -62.6325  -40.6689  -29.7304 C.ar    1  UNL1       -0.0000
     44 C         -62.8573  -41.8244  -28.9757 C.ar    1  UNL1       -0.0000
     45 C         -61.8135  -43.3104  -23.0425 C.3     1  UNL1        0.0051
     46 C         -61.7273  -44.7109  -23.6396 C.3     1  UNL1        0.0295
@<TRIPOS>BOND
     1    45    46    1
     2    46    29    1
     3    29    30   ar
     4    30    31   ar
     5    31    39    1
     6    39    40   ar
     7    40    41   ar
     8    41    42   ar
     9    42    43   ar
    10    43    44   ar
    11    31    32   ar
    12    32    33   ar
    13    33    34   ar
    14    34    35    1
    15    34    36   ar
    16    36    25    1
    17    25    26    2
    18    25    27   am
    19    27     1    1
    20     1     2   ar
    21     2     3   ar
    22     3     4   ar
    23     4     7    1
    24     7     8    1
    25     8     9    1
    26     9    10    1
    27    10    13    1
    28    13    14    1
    29    14    15    1
    30    15    16   ar
    31    16    17   ar
    32    17    18   ar
    33    18    19   ar
    34    19    21    1
    35    21    22    2
    36    21    23    1
    37    19    20   ar
    38    10    11    1
    39    11    12    1
    40     4     5   ar
    41     5     6   ar
    42    36    37   ar
    43    37    38   ar
    44    38    29   ar
    45    44    39   ar
    46    38    33   ar
    47     6     1   ar
    48    12     7    1
    49    20    15   ar
    50    27    28    1
    51    23    24    1
@<TRIPOS>MOLECULE
*****
 46 51 0 0 0
SMALL
GASTEIGER

@<TRIPOS>ATOM
      1 C         -65.7615  -53.1288  -23.2935 C.ar    1  UNL1        0.0702
      2 C         -65.7180  -54.2064  -24.1846 C.ar    1  UNL1        0.0191
      3 C         -66.7393  -55.1576  -24.1915 C.ar    1  UNL1        0.0356
      4 C         -67.8085  -55.0395  -23.2841 C.ar    1  UNL1        0.1318
      5 N         -67.8114  -53.9942  -22.4092 N.ar    1  UNL1       -0.2279
      6 C         -66.8301  -53.0544  -22.3871 C.ar    1  UNL1        0.1149
      7 N         -68.8930  -55.9989  -23.2642 N.pl3   1  UNL1       -0.2932
      8 C         -69.2003  -56.7595  -22.0421 C.3     1  UNL1        0.0923
      9 C         -70.6804  -56.6028  -21.6552 C.3     1  UNL1        0.0252
     10 C         -71.6349  -56.5097  -22.8776 C.3     1  UNL1        0.0472
     11 C         -70.9725  -57.0484  -24.1582 C.3     1  UNL1        0.0252
     12 C         -69.7016  -56.2452  -24.4722 C.3     1  UNL1        0.0923
     13 C         -72.9622  -57.2343  -22.6105 C.3     1  UNL1        0.2054
     14 O         -73.9055  -56.3232  -22.0496 O.3     1  UNL1       -0.4755
     15 C         -74.1827  -56.2103  -20.6793 C.ar    1  UNL1        0.1388
     16 C         -74.9460  -57.1657  -19.9837 C.ar    1  UNL1        0.0369
     17 C         -75.1833  -57.0131  -18.6167 C.ar    1  UNL1        0.0033
     18 C         -74.6702  -55.9092  -17.9326 C.ar    1  UNL1        0.0066
     19 C         -73.9168  -54.9360  -18.6123 C.ar    1  UNL1        0.0785
     20 C         -73.6725  -55.1038  -19.9882 C.ar    1  UNL1        0.0433
     21 C         -73.3756  -53.7693  -17.8730 C.2     1  UNL1        0.3381
     22 O         -73.0602  -53.8903  -16.6593 O.2     1  UNL1       -0.2451
     23 O         -73.2167  -52.5239  -18.4800 O.3     1  UNL1       -0.4771
     24 H         -73.5448  -52.3274  -19.4165 H       1  UNL1        0.2954
     25 C         -63.9863  -51.7371  -24.4587 C.2     1  UNL1        0.2839
     26 O         -64.1065  -52.3727  -25.5406 O.2     1  UNL1       -0.2665
     27 N         -64.6902  -52.1695  -23.2831 N.am    1  UNL1       -0.2766
     28 H         -64.3488  -51.8309  -22.3550 H       1  UNL1        0.1553
     29 C         -61.9809  -47.4489  -25.4956 C.ar    1  UNL1        0.0123
     30 C         -60.9356  -46.6684  -24.9581 C.ar    1  UNL1       -0.0013
     31 C         -60.1701  -47.1308  -23.8545 C.ar    1  UNL1       -0.0001
     32 C         -60.4691  -48.3879  -23.2794 C.ar    1  UNL1        0.0028
     33 C         -61.5168  -49.1317  -23.8221 C.ar    1  UNL1        0.0334
     34 C         -62.0429  -50.3628  -23.4793 C.ar    1  UNL1        0.0202
     35 C         -61.5986  -51.2708  -22.3722 C.3     1  UNL1        0.0345
     36 C         -63.0879  -50.5695  -24.3857 C.ar    1  UNL1        0.1946
     37 O         -63.1787  -49.5429  -25.2114 O.2     1  UNL1       -0.4495
     38 C         -62.2473  -48.6778  -24.8879 C.ar    1  UNL1        0.1412
     39 C         -59.0690  -46.2995  -23.3056 C.ar    1  UNL1       -0.0000
     40 C         -57.8220  -46.8762  -22.9982 C.ar    1  UNL1       -0.0000
     41 C         -56.7870  -46.0914  -22.4808 C.ar    1  UNL1       -0.0000
     42 C         -56.9833  -44.7255  -22.2653 C.ar    1  UNL1        0.0000
     43 C         -58.2157  -44.1414  -22.5665 C.ar    1  UNL1       -0.0000
     44 C         -59.2546  -44.9217  -23.0833 C.ar    1  UNL1       -0.0000
     45 C         -62.0293  -45.9616  -27.4946 C.3     1  UNL1        0.0051
     46 C         -62.8202  -46.9439  -26.6373 C.3     1  UNL1        0.0295
@<TRIPOS>BOND
     1    45    46    1
     2    46    29    1
     3    29    30   ar
     4    30    31   ar
     5    31    39    1
     6    39    40   ar
     7    40    41   ar
     8    41    42   ar
     9    42    43   ar
    10    43    44   ar
    11    31    32   ar
    12    32    33   ar
    13    33    34   ar
    14    34    35    1
    15    34    36   ar
    16    36    25    1
    17    25    26    2
    18    25    27   am
    19    27     1    1
    20     1     2   ar
    21     2     3   ar
    22     3     4   ar
    23     4     7    1
    24     7     8    1
    25     8     9    1
    26     9    10    1
    27    10    13    1
    28    13    14    1
    29    14    15    1
    30    15    16   ar
    31    16    17   ar
    32    17    18   ar
    33    18    19   ar
    34    19    21    1
    35    21    22    2
    36    21    23    1
    37    19    20   ar
    38    10    11    1
    39    11    12    1
    40     4     5   ar
    41     5     6   ar
    42    36    37   ar
    43    37    38   ar
    44    38    29   ar
    45    44    39   ar
    46    38    33   ar
    47     6     1   ar
    48    12     7    1
    49    20    15   ar
    50    27    28    1
    51    23    24    1
@<TRIPOS>MOLECULE
*****
 46 51 0 0 0
SMALL
GASTEIGER

@<TRIPOS>ATOM
      1 C         -61.9938  -42.6501  -20.5425 C.ar    1  UNL1        0.0702
      2 C         -62.8374  -43.7336  -20.8101 C.ar    1  UNL1        0.0191
      3 C         -62.3083  -44.9473  -21.2514 C.ar    1  UNL1        0.0356
      4 C         -60.9201  -45.0740  -21.4442 C.ar    1  UNL1        0.1318
      5 N         -60.1247  -43.9939  -21.2012 N.ar    1  UNL1       -0.2279
      6 C         -60.6174  -42.8040  -20.7674 C.ar    1  UNL1        0.1149
      7 N         -60.3291  -46.3180  -21.8917 N.pl3   1  UNL1       -0.2932
      8 C         -59.9564  -47.3629  -20.9244 C.3     1  UNL1        0.0923
      9 C         -60.5984  -48.7099  -21.2963 C.3     1  UNL1        0.0252
     10 C         -60.6991  -48.9473  -22.8284 C.3     1  UNL1        0.0472
     11 C         -59.7426  -48.0291  -23.6100 C.3     1  UNL1        0.0252
     12 C         -60.0738  -46.5570  -23.3239 C.3     1  UNL1        0.0923
     13 C         -60.4476  -50.4193  -23.1866 C.3     1  UNL1        0.2054
     14 O         -61.4637  -50.8807  -24.0750 O.3     1  UNL1       -0.4755
     15 C         -62.3628  -50.0464  -24.7552 C.ar    1  UNL1        0.1388
     16 C         -63.7211  -49.9541  -24.4003 C.ar    1  UNL1        0.0369
     17 C         -64.5724  -49.0991  -25.1021 C.ar    1  UNL1        0.0033
     18 C         -64.0834  -48.3349  -26.1635 C.ar    1  UNL1        0.0066
     19 C         -62.7324  -48.4231  -26.5429 C.ar    1  UNL1        0.0785
     20 C         -61.8784  -49.2791  -25.8224 C.ar    1  UNL1        0.0433
     21 C         -62.2253  -47.6041  -27.6709 C.2     1  UNL1        0.3381
     22 O         -63.0310  -46.9251  -28.3616 O.2     1  UNL1       -0.2451
     23 O         -60.8720  -47.5723  -28.0060 O.3     1  UNL1       -0.4771
     24 H         -60.1862  -48.1702  -27.5638 H       1  UNL1        0.2954
     25 C         -62.5397  -40.1958  -20.8951 C.2     1  UNL1        0.2839
     26 O         -61.7993  -40.1109  -21.9116 O.2     1  UNL1       -0.2665
     27 N         -62.5564  -41.3992  -20.1102 N.am    1  UNL1       -0.2766
     28 H         -62.9239  -41.3423  -19.1333 H       1  UNL1        0.1553
     29 C         -63.7329  -35.7495  -19.3811 C.ar    1  UNL1        0.0123
     30 C         -64.9377  -35.0578  -19.1347 C.ar    1  UNL1       -0.0013
     31 C         -66.1954  -35.6969  -19.3008 C.ar    1  UNL1       -0.0001
     32 C         -66.2393  -37.0435  -19.7311 C.ar    1  UNL1        0.0028
     33 C         -65.0333  -37.6982  -19.9808 C.ar    1  UNL1        0.0334
     34 C         -64.7573  -38.9818  -20.4121 C.ar    1  UNL1        0.0202
     35 C         -65.7384  -40.0662  -20.7420 C.3     1  UNL1        0.0345
     36 C         -63.3618  -39.0423  -20.4834 C.ar    1  UNL1        0.1946
     37 O         -62.8408  -37.8850  -20.1188 O.2     1  UNL1       -0.4495
     38 C         -63.8257  -37.0737  -19.8152 C.ar    1  UNL1        0.1412
     39 C         -67.4537  -34.9562  -19.0306 C.ar    1  UNL1       -0.0000
     40 C         -68.6422  -35.2946  -19.7053 C.ar    1  UNL1       -0.0000
     41 C         -69.8255  -34.5952  -19.4495 C.ar    1  UNL1       -0.0000
     42 C         -69.8370  -33.5532  -18.5194 C.ar    1  UNL1        0.0000
     43 C         -68.6647  -33.2081  -17.8434 C.ar    1  UNL1       -0.0000
     44 C         -67.4782  -33.9036  -18.0959 C.ar    1  UNL1       -0.0000
     45 C         -61.6098  -35.1619  -20.5460 C.3     1  UNL1        0.0051
     46 C         -62.4010  -35.0632  -19.2463 C.3     1  UNL1        0.0295
@<TRIPOS>BOND
     1    45    46    1
     2    46    29    1
     3    29    30   ar
     4    30    31   ar
     5    31    39    1
     6    39    40   ar
     7    40    41   ar
     8    41    42   ar
     9    42    43   ar
    10    43    44   ar
    11    31    32   ar
    12    32    33   ar
    13    33    34   ar
    14    34    35    1
    15    34    36   ar
    16    36    25    1
    17    25    26    2
    18    25    27   am
    19    27     1    1
    20     1     2   ar
    21     2     3   ar
    22     3     4   ar
    23     4     7    1
    24     7     8    1
    25     8     9    1
    26     9    10    1
    27    10    13    1
    28    13    14    1
    29    14    15    1
    30    15    16   ar
    31    16    17   ar
    32    17    18   ar
    33    18    19   ar
    34    19    21    1
    35    21    22    2
    36    21    23    1
    37    19    20   ar
    38    10    11    1
    39    11    12    1
    40     4     5   ar
    41     5     6   ar
    42    36    37   ar
    43    37    38   ar
    44    38    29   ar
    45    44    39   ar
    46    38    33   ar
    47     6     1   ar
    48    12     7    1
    49    20    15   ar
    50    27    28    1
    51    23    24    1
@<TRIPOS>MOLECULE
*****
 46 51 0 0 0
SMALL
GASTEIGER

@<TRIPOS>ATOM
      1 C         -64.7801  -52.8441  -24.3973 C.ar    1  UNL1        0.0702
      2 C         -65.1782  -53.5349  -25.5468 C.ar    1  UNL1        0.0191
      3 C         -66.1633  -54.5206  -25.4717 C.ar    1  UNL1        0.0356
      4 C         -66.7454  -54.8316  -24.2287 C.ar    1  UNL1        0.1318
      5 N         -66.3193  -54.1612  -23.1209 N.ar    1  UNL1       -0.2279
      6 C         -65.3646  -53.1953  -23.1710 C.ar    1  UNL1        0.1149
      7 N         -67.7772  -55.8405  -24.1080 N.pl3   1  UNL1       -0.2932
      8 C         -68.0179  -56.5184  -22.8239 C.3     1  UNL1        0.0923
      9 C         -69.4956  -56.4076  -22.4128 C.3     1  UNL1        0.0252
     10 C         -70.4795  -56.4585  -23.6141 C.3     1  UNL1        0.0472
     11 C         -69.8171  -57.0607  -24.8661 C.3     1  UNL1        0.0252
     12 C         -68.5972  -56.2207  -25.2727 C.3     1  UNL1        0.0923
     13 C         -71.7608  -57.2267  -23.2588 C.3     1  UNL1        0.2054
     14 O         -72.8857  -56.3535  -23.3399 O.3     1  UNL1       -0.4755
     15 C         -73.4870  -55.9420  -24.5383 C.ar    1  UNL1        0.1388
     16 C         -74.6584  -56.5402  -25.0379 C.ar    1  UNL1        0.0369
     17 C         -75.2241  -56.0853  -26.2301 C.ar    1  UNL1        0.0033
     18 C         -74.6286  -55.0387  -26.9370 C.ar    1  UNL1        0.0066
     19 C         -73.4500  -54.4369  -26.4620 C.ar    1  UNL1        0.0785
     20 C         -72.8928  -54.8940  -25.2531 C.ar    1  UNL1        0.0433
     21 C         -72.8290  -53.3244  -27.2217 C.2     1  UNL1        0.3381
     22 O         -71.5764  -53.1894  -27.2200 O.2     1  UNL1       -0.2451
     23 O         -73.5958  -52.4026  -27.9337 O.3     1  UNL1       -0.4771
     24 H         -74.6065  -52.3874  -27.8944 H       1  UNL1        0.2954
     25 C         -63.9176  -50.5677  -25.1187 C.2     1  UNL1        0.2839
     26 O         -64.9171  -50.3511  -25.8556 O.2     1  UNL1       -0.2665
     27 N         -63.7476  -51.8471  -24.4872 N.am    1  UNL1       -0.2766
     28 H         -62.7930  -52.1028  -24.1468 H       1  UNL1        0.1553
     29 C         -61.0707  -46.7570  -26.0452 C.ar    1  UNL1        0.0123
     30 C         -60.0865  -46.0374  -25.3350 C.ar    1  UNL1       -0.0013
     31 C         -59.7068  -46.4193  -24.0206 C.ar    1  UNL1       -0.0001
     32 C         -60.3341  -47.5309  -23.4113 C.ar    1  UNL1        0.0028
     33 C         -61.3136  -48.2150  -24.1313 C.ar    1  UNL1        0.0334
     34 C         -62.0949  -49.3083  -23.8087 C.ar    1  UNL1        0.0202
     35 C         -62.0924  -50.0880  -22.5283 C.3     1  UNL1        0.0345
     36 C         -62.8958  -49.5198  -24.9357 C.ar    1  UNL1        0.1946
     37 O         -62.6134  -48.6245  -25.8644 O.2     1  UNL1       -0.4495
     38 C         -61.6707  -47.8401  -25.3992 C.ar    1  UNL1        0.1412
     39 C         -58.6643  -45.6550  -23.2899 C.ar    1  UNL1       -0.0000
     40 C         -57.4393  -46.2602  -22.9505 C.ar    1  UNL1       -0.0000
     41 C         -56.4596  -45.5385  -22.2619 C.ar    1  UNL1       -0.0000
     42 C         -56.6897  -44.2078  -21.9056 C.ar    1  UNL1        0.0000
     43 C         -57.9007  -43.5960  -22.2367 C.ar    1  UNL1       -0.0000
     44 C         -58.8845  -44.3132  -22.9246 C.ar    1  UNL1       -0.0000
     45 C         -60.3166  -45.8116  -28.2241 C.3     1  UNL1        0.0051
     46 C         -61.5045  -46.3300  -27.4209 C.3     1  UNL1        0.0295
@<TRIPOS>BOND
     1    45    46    1
     2    46    29    1
     3    29    30   ar
     4    30    31   ar
     5    31    39    1
     6    39    40   ar
     7    40    41   ar
     8    41    42   ar
     9    42    43   ar
    10    43    44   ar
    11    31    32   ar
    12    32    33   ar
    13    33    34   ar
    14    34    35    1
    15    34    36   ar
    16    36    25    1
    17    25    26    2
    18    25    27   am
    19    27     1    1
    20     1     2   ar
    21     2     3   ar
    22     3     4   ar
    23     4     7    1
    24     7     8    1
    25     8     9    1
    26     9    10    1
    27    10    13    1
    28    13    14    1
    29    14    15    1
    30    15    16   ar
    31    16    17   ar
    32    17    18   ar
    33    18    19   ar
    34    19    21    1
    35    21    22    2
    36    21    23    1
    37    19    20   ar
    38    10    11    1
    39    11    12    1
    40     4     5   ar
    41     5     6   ar
    42    36    37   ar
    43    37    38   ar
    44    38    29   ar
    45    44    39   ar
    46    38    33   ar
    47     6     1   ar
    48    12     7    1
    49    20    15   ar
    50    27    28    1
    51    23    24    1
