@<TRIPOS>MOLECULE
*****
 32 35 0 0 0
SMALL
GASTEIGER

@<TRIPOS>ATOM
      1 N          46.4656   14.8462  -26.4286 N.ar    1  UNL1       -0.3245
      2 C          46.4423   13.8811  -27.3888 C.ar    1  UNL1        0.0600
      3 C          46.2811   14.0397  -28.7734 C.ar    1  UNL1        0.0177
      4 C          46.3002   12.8910  -29.5844 C.ar    1  UNL1        0.0082
      5 C          46.4822   11.6132  -29.0147 C.ar    1  UNL1        0.0347
      6 BR         46.5084   10.0669  -30.1345 Br      1  UNL1       -0.0490
      7 C          46.6499   11.4737  -27.6267 C.ar    1  UNL1        0.0082
      8 C          46.6245   12.6303  -26.8475 C.ar    1  UNL1        0.0177
      9 C          46.7790   12.8118  -25.4974 C.ar    1  UNL1        0.0175
     10 C          47.0044   11.8709  -24.4999 C.ar    1  UNL1        0.0082
     11 C          47.1325   12.3261  -23.1862 C.ar    1  UNL1        0.0344
     12 BR         47.4358   11.0732  -21.7766 Br      1  UNL1       -0.0490
     13 C          47.0326   13.6982  -22.8948 C.ar    1  UNL1        0.0063
     14 C          46.8118   14.6632  -23.9141 C.ar    1  UNL1        0.0232
     15 C          46.6835   14.1764  -25.2489 C.ar    1  UNL1        0.0583
     16 C          46.6563   16.1236  -23.5389 C.3     1  UNL1        0.1650
     17 O          47.7950   16.6390  -22.8988 O.3     1  UNL1       -0.3772
     18 H          47.6851   16.4649  -21.9273 H       1  UNL1        0.2109
     19 C          46.3965   16.2904  -26.6981 C.3     1  UNL1        0.1429
     20 C          47.7148   16.7910  -27.3068 C.3     1  UNL1        0.2027
     21 F          47.4498   17.4930  -28.4706 F       1  UNL1       -0.2334
     22 C          48.4595   17.7043  -26.3252 C.3     1  UNL1        0.1259
     23 N          49.7972   17.1805  -26.0439 N.pl3   1  UNL1       -0.3157
     24 H          50.6140   17.7548  -26.3531 H       1  UNL1        0.1483
     25 C          50.4842   14.7659  -23.3483 C.ar    1  UNL1        0.2261
     26 C          50.5912   13.5534  -24.0326 C.ar    1  UNL1        0.0578
     27 C          50.4277   13.5329  -25.4175 C.ar    1  UNL1        0.0077
     28 C          50.1626   14.7174  -26.1064 C.ar    1  UNL1        0.0343
     29 C          50.0695   15.9267  -25.3934 C.ar    1  UNL1        0.1317
     30 N          50.2268   15.9112  -24.0406 N.ar    1  UNL1       -0.1969
     31 C          50.3977   13.6521  -21.1392 C.3     1  UNL1        0.2542
     32 O          50.6431   14.7881  -21.9597 O.3     1  UNL1       -0.4561
@<TRIPOS>BOND
     1    31    32    1
     2    32    25    1
     3    25    26   ar
     4    26    27   ar
     5    27    28   ar
     6    28    29   ar
     7    29    23    1
     8    23    22    1
     9    22    20    1
    10    20    21    1
    11    20    19    1
    12    19     1    1
    13     1     2   ar
    14     2     3   ar
    15     3     4   ar
    16     4     5   ar
    17     5     6    1
    18     5     7   ar
    19     7     8   ar
    20     8     9   ar
    21     9    10   ar
    22    10    11   ar
    23    11    12    1
    24    11    13   ar
    25    13    14   ar
    26    14    16    1
    27    16    17    1
    28    14    15   ar
    29    29    30   ar
    30    30    25   ar
    31    15     1   ar
    32     8     2   ar
    33    15     9   ar
    34    23    24    1
    35    17    18    1
@<TRIPOS>MOLECULE
*****
 32 35 0 0 0
SMALL
GASTEIGER

@<TRIPOS>ATOM
      1 N          46.6541   14.4865  -24.4273 N.ar    1  UNL1       -0.3245
      2 C          47.2681   14.0761  -23.2834 C.ar    1  UNL1        0.0600
      3 C          46.7850   13.1874  -22.3112 C.ar    1  UNL1        0.0177
      4 C          47.6039   12.8968  -21.2056 C.ar    1  UNL1        0.0082
      5 C          48.8810   13.4839  -21.0843 C.ar    1  UNL1        0.0347
      6 BR         49.9780   13.0730  -19.5765 Br      1  UNL1       -0.0490
      7 C          49.3520   14.3658  -22.0715 C.ar    1  UNL1        0.0082
      8 C          48.5172   14.6366  -23.1556 C.ar    1  UNL1        0.0177
      9 C          48.7041   15.4219  -24.2637 C.ar    1  UNL1        0.0175
     10 C          49.8027   16.1924  -24.6251 C.ar    1  UNL1        0.0082
     11 C          49.7390   16.9027  -25.8254 C.ar    1  UNL1        0.0344
     12 BR         51.2192   17.9830  -26.3647 Br      1  UNL1       -0.0490
     13 C          48.5908   16.8331  -26.6343 C.ar    1  UNL1        0.0063
     14 C          47.4700   16.0382  -26.2719 C.ar    1  UNL1        0.0232
     15 C          47.5561   15.3213  -25.0416 C.ar    1  UNL1        0.0583
     16 C          46.2357   16.0424  -27.1517 C.3     1  UNL1        0.1650
     17 O          46.4484   15.3965  -28.3804 O.3     1  UNL1       -0.3772
     18 H          46.7969   16.0802  -29.0108 H       1  UNL1        0.2109
     19 C          45.3521   13.9898  -24.8975 C.3     1  UNL1        0.1429
     20 C          45.3218   12.4542  -24.8839 C.3     1  UNL1        0.2027
     21 F          44.0419   12.0142  -25.1768 F       1  UNL1       -0.2334
     22 C          46.3015   11.8777  -25.9135 C.3     1  UNL1        0.1259
     23 N          46.3084   12.6887  -27.1321 N.pl3   1  UNL1       -0.3157
     24 H          46.2734   13.7273  -27.0194 H       1  UNL1        0.1483
     25 C          45.9970   12.5586  -30.8001 C.ar    1  UNL1        0.2261
     26 C          46.3714   11.2475  -31.1008 C.ar    1  UNL1        0.0578
     27 C          46.7400   10.3872  -30.0667 C.ar    1  UNL1        0.0077
     28 C          46.7297   10.8390  -28.7461 C.ar    1  UNL1        0.0343
     29 C          46.3389   12.1621  -28.4704 C.ar    1  UNL1        0.1317
     30 N          45.9920   12.9788  -29.5037 N.ar    1  UNL1       -0.1969
     31 C          45.0983   12.9628  -33.0710 C.3     1  UNL1        0.2542
     32 O          45.6316   13.4239  -31.8354 O.3     1  UNL1       -0.4561
@<TRIPOS>BOND
     1    31    32    1
     2    32    25    1
     3    25    26   ar
     4    26    27   ar
     5    27    28   ar
     6    28    29   ar
     7    29    23    1
     8    23    22    1
     9    22    20    1
    10    20    21    1
    11    20    19    1
    12    19     1    1
    13     1     2   ar
    14     2     3   ar
    15     3     4   ar
    16     4     5   ar
    17     5     6    1
    18     5     7   ar
    19     7     8   ar
    20     8     9   ar
    21     9    10   ar
    22    10    11   ar
    23    11    12    1
    24    11    13   ar
    25    13    14   ar
    26    14    16    1
    27    16    17    1
    28    14    15   ar
    29    29    30   ar
    30    30    25   ar
    31    15     1   ar
    32     8     2   ar
    33    15     9   ar
    34    23    24    1
    35    17    18    1
@<TRIPOS>MOLECULE
*****
 32 35 0 0 0
SMALL
GASTEIGER

@<TRIPOS>ATOM
      1 N          47.5601   11.3324  -23.3205 N.ar    1  UNL1       -0.3245
      2 C          46.9829   12.2614  -24.1316 C.ar    1  UNL1        0.0600
      3 C          45.8816   13.0864  -23.8581 C.ar    1  UNL1        0.0177
      4 C          45.4601   13.9891  -24.8504 C.ar    1  UNL1        0.0082
      5 C          46.1348   14.0625  -26.0873 C.ar    1  UNL1        0.0347
      6 BR         45.5479   15.2978  -27.4197 Br      1  UNL1       -0.0490
      7 C          47.2408   13.2341  -26.3412 C.ar    1  UNL1        0.0082
      8 C          47.6348   12.3474  -25.3392 C.ar    1  UNL1        0.0177
      9 C          48.6679   11.4477  -25.2861 C.ar    1  UNL1        0.0175
     10 C          49.6339   11.1547  -26.2412 C.ar    1  UNL1        0.0082
     11 C          50.5913   10.1873  -25.9301 C.ar    1  UNL1        0.0344
     12 BR         51.9366    9.7419  -27.2109 Br      1  UNL1       -0.0490
     13 C          50.5663    9.5352  -24.6844 C.ar    1  UNL1        0.0063
     14 C          49.5856    9.8400  -23.7023 C.ar    1  UNL1        0.0232
     15 C          48.6170   10.8309  -24.0411 C.ar    1  UNL1        0.0583
     16 C          49.5700    9.0680  -22.3978 C.3     1  UNL1        0.1650
     17 O          50.2509    9.7374  -21.3682 O.3     1  UNL1       -0.3772
     18 H          51.2032    9.4609  -21.4228 H       1  UNL1        0.2109
     19 C          47.1559   11.0752  -21.9300 C.3     1  UNL1        0.1429
     20 C          47.2018   12.3699  -21.1048 C.3     1  UNL1        0.2027
     21 F          46.0412   12.4838  -20.3582 F       1  UNL1       -0.2334
     22 C          48.4111   12.3759  -20.1616 C.3     1  UNL1        0.1259
     23 N          49.3501   13.4365  -20.5306 N.pl3   1  UNL1       -0.3157
     24 H          49.5571   14.1674  -19.8126 H       1  UNL1        0.1483
     25 C          51.6647   12.7523  -23.3131 C.ar    1  UNL1        0.2261
     26 C          51.2956   13.7006  -24.2691 C.ar    1  UNL1        0.0578
     27 C          50.2536   14.5844  -23.9890 C.ar    1  UNL1        0.0077
     28 C          49.5926   14.5171  -22.7616 C.ar    1  UNL1        0.0343
     29 C          49.9912   13.5582  -21.8125 C.ar    1  UNL1        0.1317
     30 N          51.0075   12.7051  -22.1202 N.ar    1  UNL1       -0.1969
     31 C          53.5651   12.0137  -24.7171 C.3     1  UNL1        0.2542
     32 O          52.7058   11.8625  -23.5935 O.3     1  UNL1       -0.4561
@<TRIPOS>BOND
     1    31    32    1
     2    32    25    1
     3    25    26   ar
     4    26    27   ar
     5    27    28   ar
     6    28    29   ar
     7    29    23    1
     8    23    22    1
     9    22    20    1
    10    20    21    1
    11    20    19    1
    12    19     1    1
    13     1     2   ar
    14     2     3   ar
    15     3     4   ar
    16     4     5   ar
    17     5     6    1
    18     5     7   ar
    19     7     8   ar
    20     8     9   ar
    21     9    10   ar
    22    10    11   ar
    23    11    12    1
    24    11    13   ar
    25    13    14   ar
    26    14    16    1
    27    16    17    1
    28    14    15   ar
    29    29    30   ar
    30    30    25   ar
    31    15     1   ar
    32     8     2   ar
    33    15     9   ar
    34    23    24    1
    35    17    18    1
@<TRIPOS>MOLECULE
*****
 32 35 0 0 0
SMALL
GASTEIGER

@<TRIPOS>ATOM
      1 N          46.7109   14.7000  -25.0401 N.ar    1  UNL1       -0.3245
      2 C          47.0781   13.7344  -24.1530 C.ar    1  UNL1        0.0600
      3 C          47.2993   13.8635  -22.7736 C.ar    1  UNL1        0.0177
      4 C          47.6647   12.7174  -22.0453 C.ar    1  UNL1        0.0082
      5 C          47.7995   11.4699  -22.6903 C.ar    1  UNL1        0.0347
      6 BR         48.2933    9.9256  -21.6818 Br      1  UNL1       -0.0490
      7 C          47.5664   11.3575  -24.0712 C.ar    1  UNL1        0.0082
      8 C          47.2073   12.5113  -24.7678 C.ar    1  UNL1        0.0177
      9 C          46.9009   12.7083  -26.0895 C.ar    1  UNL1        0.0175
     10 C          46.8662   11.7924  -27.1341 C.ar    1  UNL1        0.0082
     11 C          46.5120   12.2573  -28.4021 C.ar    1  UNL1        0.0344
     12 BR         46.4564   11.0409  -29.8738 Br      1  UNL1       -0.0490
     13 C          46.2036   13.6146  -28.6027 C.ar    1  UNL1        0.0063
     14 C          46.2288   14.5512  -27.5343 C.ar    1  UNL1        0.0232
     15 C          46.5937   14.0550  -26.2476 C.ar    1  UNL1        0.0583
     16 C          45.9423   16.0129  -27.8157 C.3     1  UNL1        0.1650
     17 O          46.9940   16.6458  -28.4979 O.3     1  UNL1       -0.3772
     18 H          47.6217   16.9885  -27.8088 H       1  UNL1        0.2109
     19 C          46.3979   16.0899  -24.6753 C.3     1  UNL1        0.1429
     20 C          47.6869   16.8887  -24.4310 C.3     1  UNL1        0.2027
     21 F          48.1574   16.6285  -23.1548 F       1  UNL1       -0.2334
     22 C          48.7666   16.5126  -25.4532 C.3     1  UNL1        0.1259
     23 N          49.9961   16.0947  -24.7775 N.pl3   1  UNL1       -0.3157
     24 H          50.6186   16.8460  -24.4026 H       1  UNL1        0.1483
     25 C          51.1533   13.0166  -23.1178 C.ar    1  UNL1        0.2261
     26 C          51.2437   12.1061  -24.1725 C.ar    1  UNL1        0.0578
     27 C          50.9097   12.5182  -25.4624 C.ar    1  UNL1        0.0077
     28 C          50.4925   13.8307  -25.6894 C.ar    1  UNL1        0.0343
     29 C          50.4196   14.7302  -24.6102 C.ar    1  UNL1        0.1317
     30 N          50.7456   14.2939  -23.3618 N.ar    1  UNL1       -0.1969
     31 C          51.1789   13.3779  -20.6689 C.3     1  UNL1        0.2542
     32 O          51.4832   12.6044  -21.8234 O.3     1  UNL1       -0.4561
@<TRIPOS>BOND
     1    31    32    1
     2    32    25    1
     3    25    26   ar
     4    26    27   ar
     5    27    28   ar
     6    28    29   ar
     7    29    23    1
     8    23    22    1
     9    22    20    1
    10    20    21    1
    11    20    19    1
    12    19     1    1
    13     1     2   ar
    14     2     3   ar
    15     3     4   ar
    16     4     5   ar
    17     5     6    1
    18     5     7   ar
    19     7     8   ar
    20     8     9   ar
    21     9    10   ar
    22    10    11   ar
    23    11    12    1
    24    11    13   ar
    25    13    14   ar
    26    14    16    1
    27    16    17    1
    28    14    15   ar
    29    29    30   ar
    30    30    25   ar
    31    15     1   ar
    32     8     2   ar
    33    15     9   ar
    34    23    24    1
    35    17    18    1
@<TRIPOS>MOLECULE
*****
 32 35 0 0 0
SMALL
GASTEIGER

@<TRIPOS>ATOM
      1 N          50.5005   13.0804  -24.1398 N.ar    1  UNL1       -0.3245
      2 C          49.1406   13.1304  -24.0912 C.ar    1  UNL1        0.0600
      3 C          48.3315   13.9717  -23.3129 C.ar    1  UNL1        0.0177
      4 C          46.9353   13.8550  -23.4336 C.ar    1  UNL1        0.0082
      5 C          46.3676   12.9164  -24.3209 C.ar    1  UNL1        0.0347
      6 BR         44.4693   12.7768  -24.4718 Br      1  UNL1       -0.0490
      7 C          47.1933   12.0872  -25.0985 C.ar    1  UNL1        0.0082
      8 C          48.5741   12.2241  -24.9562 C.ar    1  UNL1        0.0177
      9 C          49.6130   11.5848  -25.5820 C.ar    1  UNL1        0.0175
     10 C          49.5822   10.5924  -26.5542 C.ar    1  UNL1        0.0082
     11 C          50.8001   10.1090  -27.0364 C.ar    1  UNL1        0.0344
     12 BR         50.8135    8.7393  -28.3678 Br      1  UNL1       -0.0490
     13 C          52.0144   10.6188  -26.5431 C.ar    1  UNL1        0.0063
     14 C          52.0485   11.6404  -25.5561 C.ar    1  UNL1        0.0232
     15 C          50.7930   12.1194  -25.0772 C.ar    1  UNL1        0.0583
     16 C          53.3839   12.1150  -25.0184 C.3     1  UNL1        0.1650
     17 O          53.8978   11.2640  -24.0265 O.3     1  UNL1       -0.3772
     18 H          53.5321   11.5771  -23.1579 H       1  UNL1        0.2109
     19 C          51.3936   13.9905  -23.4069 C.3     1  UNL1        0.1429
     20 C          52.0465   13.2678  -22.2192 C.3     1  UNL1        0.2027
     21 F          53.3485   13.7134  -22.0657 F       1  UNL1       -0.2334
     22 C          51.2679   13.5287  -20.9239 C.3     1  UNL1        0.1259
     23 N          50.7708   12.2740  -20.3570 N.pl3   1  UNL1       -0.3157
     24 H          51.2270   11.9264  -19.4831 H       1  UNL1        0.1483
     25 C          49.1069    9.6925  -22.3908 C.ar    1  UNL1        0.2261
     26 C          47.7577    9.8658  -22.0756 C.ar    1  UNL1        0.0578
     27 C          47.3897   10.8566  -21.1656 C.ar    1  UNL1        0.0077
     28 C          48.3661   11.6651  -20.5816 C.ar    1  UNL1        0.0343
     29 C          49.7173   11.4755  -20.9243 C.ar    1  UNL1        0.1317
     30 N          50.0439   10.4942  -21.8106 N.ar    1  UNL1       -0.1969
     31 C          50.8281    8.4804  -23.6932 C.3     1  UNL1        0.2542
     32 O          49.4784    8.6970  -23.2990 O.3     1  UNL1       -0.4561
@<TRIPOS>BOND
     1    31    32    1
     2    32    25    1
     3    25    26   ar
     4    26    27   ar
     5    27    28   ar
     6    28    29   ar
     7    29    23    1
     8    23    22    1
     9    22    20    1
    10    20    21    1
    11    20    19    1
    12    19     1    1
    13     1     2   ar
    14     2     3   ar
    15     3     4   ar
    16     4     5   ar
    17     5     6    1
    18     5     7   ar
    19     7     8   ar
    20     8     9   ar
    21     9    10   ar
    22    10    11   ar
    23    11    12    1
    24    11    13   ar
    25    13    14   ar
    26    14    16    1
    27    16    17    1
    28    14    15   ar
    29    29    30   ar
    30    30    25   ar
    31    15     1   ar
    32     8     2   ar
    33    15     9   ar
    34    23    24    1
    35    17    18    1
@<TRIPOS>MOLECULE
*****
 32 35 0 0 0
SMALL
GASTEIGER

@<TRIPOS>ATOM
      1 N          46.8675   14.2913  -24.2295 N.ar    1  UNL1       -0.3245
      2 C          47.3744   13.8561  -23.0431 C.ar    1  UNL1        0.0600
      3 C          46.8471   12.8842  -22.1795 C.ar    1  UNL1        0.0177
      4 C          47.5530   12.5837  -21.0010 C.ar    1  UNL1        0.0082
      5 C          48.7638   13.2432  -20.7017 C.ar    1  UNL1        0.0347
      6 BR         49.7080   12.8175  -19.0976 Br      1  UNL1       -0.0490
      7 C          49.2812   14.2083  -21.5819 C.ar    1  UNL1        0.0082
      8 C          48.5585   14.4868  -22.7419 C.ar    1  UNL1        0.0177
      9 C          48.8150   15.3446  -23.7802 C.ar    1  UNL1        0.0175
     10 C          49.8909   16.2030  -23.9715 C.ar    1  UNL1        0.0082
     11 C          49.9148   16.9753  -25.1344 C.ar    1  UNL1        0.0344
     12 BR         51.3675   18.1768  -25.4420 Br      1  UNL1       -0.0490
     13 C          48.8739   16.8789  -26.0750 C.ar    1  UNL1        0.0063
     14 C          47.7775   15.9948  -25.8865 C.ar    1  UNL1        0.0232
     15 C          47.7729   15.2156  -24.6915 C.ar    1  UNL1        0.0583
     16 C          46.6542   15.9705  -26.9040 C.3     1  UNL1        0.1650
     17 O          47.0725   15.4923  -28.1563 O.3     1  UNL1       -0.3772
     18 H          47.4064   16.2748  -28.6686 H       1  UNL1        0.2109
     19 C          45.6654   13.7402  -24.8733 C.3     1  UNL1        0.1429
     20 C          45.9222   12.3068  -25.3619 C.3     1  UNL1        0.2027
     21 F          44.7234   11.7248  -25.7382 F       1  UNL1       -0.2334
     22 C          46.8837   12.2992  -26.5567 C.3     1  UNL1        0.1259
     23 N          48.0103   11.3980  -26.3088 N.pl3   1  UNL1       -0.3157
     24 H          47.9826   10.4566  -26.7622 H       1  UNL1        0.1483
     25 C          50.3226   11.2678  -23.4444 C.ar    1  UNL1        0.2261
     26 C          51.2936   12.2130  -23.7814 C.ar    1  UNL1        0.0578
     27 C          51.1837   12.9066  -24.9864 C.ar    1  UNL1        0.0077
     28 C          50.1092   12.6548  -25.8409 C.ar    1  UNL1        0.0343
     29 C          49.1399   11.7042  -25.4723 C.ar    1  UNL1        0.1317
     30 N          49.2805   11.0388  -24.2922 N.ar    1  UNL1       -0.1969
     31 C          49.5829    9.4788  -21.9015 C.3     1  UNL1        0.2542
     32 O          50.4333   10.5681  -22.2393 O.3     1  UNL1       -0.4561
@<TRIPOS>BOND
     1    31    32    1
     2    32    25    1
     3    25    26   ar
     4    26    27   ar
     5    27    28   ar
     6    28    29   ar
     7    29    23    1
     8    23    22    1
     9    22    20    1
    10    20    21    1
    11    20    19    1
    12    19     1    1
    13     1     2   ar
    14     2     3   ar
    15     3     4   ar
    16     4     5   ar
    17     5     6    1
    18     5     7   ar
    19     7     8   ar
    20     8     9   ar
    21     9    10   ar
    22    10    11   ar
    23    11    12    1
    24    11    13   ar
    25    13    14   ar
    26    14    16    1
    27    16    17    1
    28    14    15   ar
    29    29    30   ar
    30    30    25   ar
    31    15     1   ar
    32     8     2   ar
    33    15     9   ar
    34    23    24    1
    35    17    18    1
@<TRIPOS>MOLECULE
*****
 32 35 0 0 0
SMALL
GASTEIGER

@<TRIPOS>ATOM
      1 N          47.6089   13.3353  -26.1796 N.ar    1  UNL1       -0.3245
      2 C          48.8178   12.8408  -25.7949 C.ar    1  UNL1        0.0600
      3 C          49.1408   11.5238  -25.4352 C.ar    1  UNL1        0.0177
      4 C          50.4703   11.2352  -25.0794 C.ar    1  UNL1        0.0082
      5 C          51.4522   12.2482  -25.0901 C.ar    1  UNL1        0.0347
      6 BR         53.2523   11.8340  -24.6067 Br      1  UNL1       -0.0490
      7 C          51.1125   13.5602  -25.4606 C.ar    1  UNL1        0.0082
      8 C          49.7859   13.8171  -25.8066 C.ar    1  UNL1        0.0177
      9 C          49.1693   14.9684  -26.2237 C.ar    1  UNL1        0.0175
     10 C          49.7044   16.2361  -26.4186 C.ar    1  UNL1        0.0082
     11 C          48.8494   17.2477  -26.8601 C.ar    1  UNL1        0.0344
     12 BR         49.5329   19.0099  -27.1365 Br      1  UNL1       -0.0490
     13 C          47.4893   16.9788  -27.0950 C.ar    1  UNL1        0.0063
     14 C          46.9418   15.6812  -26.9058 C.ar    1  UNL1        0.0232
     15 C          47.8327   14.6628  -26.4540 C.ar    1  UNL1        0.0583
     16 C          45.4578   15.4584  -27.1197 C.3     1  UNL1        0.1650
     17 O          44.8781   16.4419  -27.9374 O.3     1  UNL1       -0.3772
     18 H          44.5950   17.1843  -27.3415 H       1  UNL1        0.2109
     19 C          46.3971   12.5222  -26.3631 C.3     1  UNL1        0.1429
     20 C          45.4743   12.6430  -25.1412 C.3     1  UNL1        0.2027
     21 F          44.2338   12.1070  -25.4437 F       1  UNL1       -0.2334
     22 C          46.0633   11.9022  -23.9344 C.3     1  UNL1        0.1259
     23 N          46.2722   12.8212  -22.8143 N.pl3   1  UNL1       -0.3157
     24 H          45.5933   12.7752  -22.0208 H       1  UNL1        0.1483
     25 C          48.0247   16.0473  -23.1124 C.ar    1  UNL1        0.2261
     26 C          49.2984   15.7597  -22.6179 C.ar    1  UNL1        0.0578
     27 C          49.5833   14.4696  -22.1710 C.ar    1  UNL1        0.0077
     28 C          48.6003   13.4801  -22.2231 C.ar    1  UNL1        0.0343
     29 C          47.3282   13.7947  -22.7351 C.ar    1  UNL1        0.1317
     30 N          47.0801   15.0659  -23.1564 N.ar    1  UNL1       -0.1969
     31 C          46.4395   17.9180  -23.4527 C.3     1  UNL1        0.2542
     32 O          47.7356   17.3408  -23.5566 O.3     1  UNL1       -0.4561
@<TRIPOS>BOND
     1    31    32    1
     2    32    25    1
     3    25    26   ar
     4    26    27   ar
     5    27    28   ar
     6    28    29   ar
     7    29    23    1
     8    23    22    1
     9    22    20    1
    10    20    21    1
    11    20    19    1
    12    19     1    1
    13     1     2   ar
    14     2     3   ar
    15     3     4   ar
    16     4     5   ar
    17     5     6    1
    18     5     7   ar
    19     7     8   ar
    20     8     9   ar
    21     9    10   ar
    22    10    11   ar
    23    11    12    1
    24    11    13   ar
    25    13    14   ar
    26    14    16    1
    27    16    17    1
    28    14    15   ar
    29    29    30   ar
    30    30    25   ar
    31    15     1   ar
    32     8     2   ar
    33    15     9   ar
    34    23    24    1
    35    17    18    1
@<TRIPOS>MOLECULE
*****
 32 35 0 0 0
SMALL
GASTEIGER

@<TRIPOS>ATOM
      1 N          47.4274   11.4378  -23.2678 N.ar    1  UNL1       -0.3245
      2 C          46.8826   12.3541  -24.1149 C.ar    1  UNL1        0.0600
      3 C          45.7310   13.1327  -23.9253 C.ar    1  UNL1        0.0177
      4 C          45.3572   14.0311  -24.9405 C.ar    1  UNL1        0.0082
      5 C          46.1278   14.1460  -26.1167 C.ar    1  UNL1        0.0347
      6 BR         45.6041   15.3747  -27.4812 Br      1  UNL1       -0.0490
      7 C          47.2826   13.3640  -26.2863 C.ar    1  UNL1        0.0082
      8 C          47.6276   12.4804  -25.2636 C.ar    1  UNL1        0.0177
      9 C          48.6874   11.6204  -25.1340 C.ar    1  UNL1        0.0175
     10 C          49.7393   11.3769  -26.0089 C.ar    1  UNL1        0.0082
     11 C          50.7052   10.4430  -25.6290 C.ar    1  UNL1        0.0344
     12 BR         52.1676   10.0659  -26.7986 Br      1  UNL1       -0.0490
     13 C          50.6037    9.7748  -24.3958 C.ar    1  UNL1        0.0063
     14 C          49.5345   10.0292  -23.4952 C.ar    1  UNL1        0.0232
     15 C          48.5587   10.9863  -23.9034 C.ar    1  UNL1        0.0583
     16 C          49.4422    9.2407  -22.2039 C.3     1  UNL1        0.1650
     17 O          50.2390    9.7843  -21.1833 O.3     1  UNL1       -0.3772
     18 H          51.1398    9.3753  -21.2700 H       1  UNL1        0.2109
     19 C          46.9208   11.1476  -21.9178 C.3     1  UNL1        0.1429
     20 C          46.9980   12.3988  -21.0303 C.3     1  UNL1        0.2027
     21 F          45.9664   12.3752  -20.1068 F       1  UNL1       -0.2334
     22 C          48.3385   12.4620  -20.2878 C.3     1  UNL1        0.1259
     23 N          49.0272   13.7226  -20.5693 N.pl3   1  UNL1       -0.3157
     24 H          49.3089   14.3102  -19.7520 H       1  UNL1        0.1483
     25 C          48.6946   15.6532  -23.6887 C.ar    1  UNL1        0.2261
     26 C          49.8133   15.2566  -24.4243 C.ar    1  UNL1        0.0578
     27 C          50.7011   14.3324  -23.8740 C.ar    1  UNL1        0.0077
     28 C          50.4657   13.8113  -22.6008 C.ar    1  UNL1        0.0343
     29 C          49.3256   14.2208  -21.8854 C.ar    1  UNL1        0.1317
     30 N          48.4824   15.1305  -22.4481 N.ar    1  UNL1       -0.1969
     31 C          46.8187   17.2523  -23.4611 C.3     1  UNL1        0.2542
     32 O          47.8059   16.5829  -24.2364 O.3     1  UNL1       -0.4561
@<TRIPOS>BOND
     1    31    32    1
     2    32    25    1
     3    25    26   ar
     4    26    27   ar
     5    27    28   ar
     6    28    29   ar
     7    29    23    1
     8    23    22    1
     9    22    20    1
    10    20    21    1
    11    20    19    1
    12    19     1    1
    13     1     2   ar
    14     2     3   ar
    15     3     4   ar
    16     4     5   ar
    17     5     6    1
    18     5     7   ar
    19     7     8   ar
    20     8     9   ar
    21     9    10   ar
    22    10    11   ar
    23    11    12    1
    24    11    13   ar
    25    13    14   ar
    26    14    16    1
    27    16    17    1
    28    14    15   ar
    29    29    30   ar
    30    30    25   ar
    31    15     1   ar
    32     8     2   ar
    33    15     9   ar
    34    23    24    1
    35    17    18    1
@<TRIPOS>MOLECULE
*****
 32 35 0 0 0
SMALL
GASTEIGER

@<TRIPOS>ATOM
      1 N          49.9310   11.8335  -23.0414 N.ar    1  UNL1       -0.3245
      2 C          50.2537   11.0855  -24.1324 C.ar    1  UNL1        0.0600
      3 C          50.2853    9.6876  -24.2464 C.ar    1  UNL1        0.0177
      4 C          50.6404    9.1261  -25.4858 C.ar    1  UNL1        0.0082
      5 C          50.9517    9.9530  -26.5857 C.ar    1  UNL1        0.0347
      6 BR         51.4280    9.1698  -28.2606 Br      1  UNL1       -0.0490
      7 C          50.9072   11.3513  -26.4556 C.ar    1  UNL1        0.0082
      8 C          50.5537   11.8796  -25.2141 C.ar    1  UNL1        0.0177
      9 C          50.4056   13.1765  -24.7949 C.ar    1  UNL1        0.0175
     10 C          50.5754   14.3590  -25.5049 C.ar    1  UNL1        0.0082
     11 C          50.3527   15.5636  -24.8350 C.ar    1  UNL1        0.0344
     12 BR         50.5796   17.2178  -25.7630 Br      1  UNL1       -0.0490
     13 C          49.9700   15.5660  -23.4818 C.ar    1  UNL1        0.0063
     14 C          49.7862   14.3581  -22.7564 C.ar    1  UNL1        0.0232
     15 C          50.0195   13.1392  -23.4598 C.ar    1  UNL1        0.0583
     16 C          49.4277   14.4179  -21.2848 C.3     1  UNL1        0.1650
     17 O          50.5606   14.4435  -20.4554 O.3     1  UNL1       -0.3772
     18 H          50.8060   13.4991  -20.2707 H       1  UNL1        0.2109
     19 C          49.4687   11.2797  -21.7597 C.3     1  UNL1        0.1429
     20 C          48.1033   10.5964  -21.9265 C.3     1  UNL1        0.2027
     21 F          48.0406    9.4819  -21.1070 F       1  UNL1       -0.2334
     22 C          46.9627   11.5549  -21.5627 C.3     1  UNL1        0.1259
     23 N          46.0658   11.7488  -22.7031 N.pl3   1  UNL1       -0.3157
     24 H          45.0943   11.3719  -22.6211 H       1  UNL1        0.1483
     25 C          47.1387   12.1701  -26.2017 C.ar    1  UNL1        0.2261
     26 C          47.1405   13.5569  -26.3648 C.ar    1  UNL1        0.0578
     27 C          46.7737   14.3719  -25.2941 C.ar    1  UNL1        0.0077
     28 C          46.4123   13.7997  -24.0734 C.ar    1  UNL1        0.0343
     29 C          46.4285   12.3999  -23.9335 C.ar    1  UNL1        0.1317
     30 N          46.7843   11.6321  -25.0007 N.ar    1  UNL1       -0.1969
     31 C          46.6930   11.2017  -28.4359 C.3     1  UNL1        0.2542
     32 O          47.5015   11.3511  -27.2749 O.3     1  UNL1       -0.4561
@<TRIPOS>BOND
     1    31    32    1
     2    32    25    1
     3    25    26   ar
     4    26    27   ar
     5    27    28   ar
     6    28    29   ar
     7    29    23    1
     8    23    22    1
     9    22    20    1
    10    20    21    1
    11    20    19    1
    12    19     1    1
    13     1     2   ar
    14     2     3   ar
    15     3     4   ar
    16     4     5   ar
    17     5     6    1
    18     5     7   ar
    19     7     8   ar
    20     8     9   ar
    21     9    10   ar
    22    10    11   ar
    23    11    12    1
    24    11    13   ar
    25    13    14   ar
    26    14    16    1
    27    16    17    1
    28    14    15   ar
    29    29    30   ar
    30    30    25   ar
    31    15     1   ar
    32     8     2   ar
    33    15     9   ar
    34    23    24    1
    35    17    18    1
