@<TRIPOS>MOLECULE
*****
 41 45 0 0 0
SMALL
GASTEIGER

@<TRIPOS>ATOM
      1 C         -26.8905   50.6372   -7.2789 C.ar    1  UNL1        0.0888
      2 C         -25.5246   50.9946   -7.4494 C.ar    1  UNL1        0.0282
      3 C         -25.0343   51.1408   -8.7554 C.ar    1  UNL1        0.0997
      4 N         -23.7865   51.4668   -9.1376 N.ar    1  UNL1       -0.2137
      5 C         -23.8796   51.4568  -10.4950 C.ar    1  UNL1        0.1984
      6 N         -25.1120   51.1306  -10.9644 N.ar    1  UNL1       -0.3255
      7 C         -25.8254   50.9412   -9.8497 C.ar    1  UNL1        0.0755
      8 C         -27.1571   50.5796   -9.7063 C.ar    1  UNL1        0.0325
      9 C         -27.6723   50.4263   -8.4435 C.ar    1  UNL1        0.1401
     10 O         -28.9917   50.0275   -8.5037 O.3     1  UNL1       -0.4824
     11 C         -29.4288   49.9070   -9.8612 C.3     1  UNL1        0.1375
     12 C         -30.5891   50.8814  -10.1027 C.3     1  UNL1        0.0439
     13 C         -29.8797   48.4631  -10.1171 C.3     1  UNL1        0.0439
     14 C         -28.1837   50.2779  -10.7349 C.3     1  UNL1        0.0709
     15 H         -25.4312   51.0323  -11.9538 H       1  UNL1        0.1686
     16 N         -28.4923   49.5012   -5.6771 N.am    1  UNL1       -0.2799
     17 C         -27.4567   50.4639   -5.9240 C.2     1  UNL1        0.2525
     18 O         -27.0404   51.1895   -4.9794 O.2     1  UNL1       -0.2697
     19 H         -29.1082   49.2147   -6.4707 H       1  UNL1        0.1552
     20 C         -31.0104   50.4514   -4.5905 C.3     1  UNL1        0.0323
     21 C         -30.0920   49.5595   -3.7994 C.ar    1  UNL1       -0.0076
     22 C         -30.4642   49.1519   -2.5081 C.ar    1  UNL1        0.0009
     23 C         -29.6238   48.3277   -1.7434 C.ar    1  UNL1        0.0720
     24 C         -28.4291   47.8587   -2.3100 C.ar    1  UNL1        0.0165
     25 C         -28.0501   48.2456   -3.5986 C.ar    1  UNL1        0.0707
     26 CL        -26.5763   47.5638   -4.2783 Cl      1  UNL1       -0.0810
     27 C         -28.8709   49.1115   -4.3477 C.ar    1  UNL1        0.0572
     28 C         -30.0531   47.8622   -0.3742 C.3     1  UNL1        0.4186
     29 F         -29.4159   48.6253    0.5862 F       1  UNL1       -0.1659
     30 F         -29.7230   46.5312   -0.1851 F       1  UNL1       -0.1659
     31 F         -31.4224   47.9933   -0.2191 F       1  UNL1       -0.1659
     32 N         -22.7563   51.7329  -11.3408 N.pl3   1  UNL1       -0.2816
     33 H         -22.8662   51.5794  -12.3684 H       1  UNL1        0.1551
     34 C         -21.5771   52.4009  -10.8723 C.ar    1  UNL1        0.0889
     35 C         -20.3868   51.6710  -10.7239 C.ar    1  UNL1        0.1543
     36 F         -20.3499   50.3522  -11.0407 F       1  UNL1       -0.2028
     37 C         -19.2256   52.3018  -10.2682 C.ar    1  UNL1        0.0310
     38 C         -19.2470   53.6597   -9.9436 C.ar    1  UNL1        0.0033
     39 C         -20.4325   54.3889  -10.0633 C.ar    1  UNL1        0.0128
     40 C         -21.6012   53.7669  -10.5188 C.ar    1  UNL1        0.0733
     41 CL        -23.0886   54.7056  -10.5723 Cl      1  UNL1       -0.0809
@<TRIPOS>BOND
     1    20    21    1
     2    21    22   ar
     3    22    23   ar
     4    23    28    1
     5    28    29    1
     6    28    30    1
     7    28    31    1
     8    23    24   ar
     9    24    25   ar
    10    25    26    1
    11    25    27   ar
    12    27    16    1
    13    16    17   am
    14    17    18    2
    15    17     1    1
    16     1     2   ar
    17     2     3   ar
    18     3     4   ar
    19     4     5   ar
    20     5    32    1
    21    32    34    1
    22    34    35   ar
    23    35    36    1
    24    35    37   ar
    25    37    38   ar
    26    38    39   ar
    27    39    40   ar
    28    40    41    1
    29     5     6   ar
    30     6     7   ar
    31     7     8   ar
    32     8     9   ar
    33     9    10    1
    34    10    11    1
    35    11    12    1
    36    11    13    1
    37    11    14    1
    38    27    21   ar
    39     9     1   ar
    40     7     3   ar
    41    14     8    1
    42    40    34   ar
    43    16    19    1
    44    32    33    1
    45     6    15    1
@<TRIPOS>MOLECULE
*****
 41 45 0 0 0
SMALL
GASTEIGER

@<TRIPOS>ATOM
      1 C         -26.5430   49.5653   -7.4797 C.ar    1  UNL1        0.0888
      2 C         -25.2242   50.0607   -7.6748 C.ar    1  UNL1        0.0282
      3 C         -24.9238   50.6882   -8.8927 C.ar    1  UNL1        0.0997
      4 N         -23.7504   51.2189   -9.2811 N.ar    1  UNL1       -0.2137
      5 C         -24.0303   51.6748  -10.5321 C.ar    1  UNL1        0.1984
      6 N         -25.3064   51.4410  -10.9354 N.ar    1  UNL1       -0.3255
      7 C         -25.8530   50.8231   -9.8834 C.ar    1  UNL1        0.0755
      8 C         -27.1415   50.3358   -9.7191 C.ar    1  UNL1        0.0325
      9 C         -27.4724   49.7149   -8.5407 C.ar    1  UNL1        0.1401
     10 O         -28.7759   49.2645   -8.5798 O.3     1  UNL1       -0.4824
     11 C         -29.3933   49.5914   -9.8291 C.3     1  UNL1        0.1375
     12 C         -30.6024   50.4993   -9.5684 C.3     1  UNL1        0.0439
     13 C         -29.8353   48.2971  -10.5244 C.3     1  UNL1        0.0439
     14 C         -28.2919   50.3348  -10.6569 C.3     1  UNL1        0.0709
     15 H         -25.7567   51.6695  -11.8494 H       1  UNL1        0.1686
     16 N         -27.5418   49.6154   -5.1512 N.am    1  UNL1       -0.2799
     17 C         -26.9111   48.8898   -6.2170 C.2     1  UNL1        0.2525
     18 O         -26.6443   47.6658   -6.0668 O.2     1  UNL1       -0.2697
     19 H         -27.3911   50.6473   -5.0912 H       1  UNL1        0.1552
     20 C         -25.9825   49.1583   -2.7461 C.3     1  UNL1        0.0323
     21 C         -27.4184   48.7212   -2.8548 C.ar    1  UNL1       -0.0076
     22 C         -28.0369   48.0944   -1.7609 C.ar    1  UNL1        0.0009
     23 C         -29.3720   47.6678   -1.8363 C.ar    1  UNL1        0.0720
     24 C         -30.1080   47.9334   -3.0008 C.ar    1  UNL1        0.0165
     25 C         -29.5105   48.5671   -4.0940 C.ar    1  UNL1        0.0707
     26 CL        -30.5085   48.9364   -5.4963 Cl      1  UNL1       -0.0810
     27 C         -28.1565   48.9521   -4.0356 C.ar    1  UNL1        0.0572
     28 C         -30.0383   47.0337   -0.6406 C.3     1  UNL1        0.4186
     29 F         -29.4358   45.8181   -0.3757 F       1  UNL1       -0.1659
     30 F         -31.3849   46.8260   -0.8849 F       1  UNL1       -0.1659
     31 F         -29.9224   47.8468    0.4736 F       1  UNL1       -0.1659
     32 N         -23.0430   52.3109  -11.3532 N.pl3   1  UNL1       -0.2816
     33 H         -23.3092   52.5691  -12.3298 H       1  UNL1        0.1551
     34 C         -21.7956   52.7926  -10.8353 C.ar    1  UNL1        0.0889
     35 C         -20.7142   51.9055  -10.7119 C.ar    1  UNL1        0.1543
     36 F         -20.8443   50.6115  -11.0986 F       1  UNL1       -0.2028
     37 C         -19.4892   52.3534  -10.2090 C.ar    1  UNL1        0.0310
     38 C         -19.3389   53.6837   -9.8122 C.ar    1  UNL1        0.0033
     39 C         -20.4162   54.5680   -9.9069 C.ar    1  UNL1        0.0128
     40 C         -21.6474   54.1297  -10.4092 C.ar    1  UNL1        0.0733
     41 CL        -22.9977   55.2577  -10.4302 Cl      1  UNL1       -0.0809
@<TRIPOS>BOND
     1    20    21    1
     2    21    22   ar
     3    22    23   ar
     4    23    28    1
     5    28    29    1
     6    28    30    1
     7    28    31    1
     8    23    24   ar
     9    24    25   ar
    10    25    26    1
    11    25    27   ar
    12    27    16    1
    13    16    17   am
    14    17    18    2
    15    17     1    1
    16     1     2   ar
    17     2     3   ar
    18     3     4   ar
    19     4     5   ar
    20     5    32    1
    21    32    34    1
    22    34    35   ar
    23    35    36    1
    24    35    37   ar
    25    37    38   ar
    26    38    39   ar
    27    39    40   ar
    28    40    41    1
    29     5     6   ar
    30     6     7   ar
    31     7     8   ar
    32     8     9   ar
    33     9    10    1
    34    10    11    1
    35    11    12    1
    36    11    13    1
    37    11    14    1
    38    27    21   ar
    39     9     1   ar
    40     7     3   ar
    41    14     8    1
    42    40    34   ar
    43    16    19    1
    44    32    33    1
    45     6    15    1
@<TRIPOS>MOLECULE
*****
 41 45 0 0 0
SMALL
GASTEIGER

@<TRIPOS>ATOM
      1 C         -26.4365   50.0731   -7.7213 C.ar    1  UNL1        0.0888
      2 C         -25.0696   50.3720   -7.4671 C.ar    1  UNL1        0.0282
      3 C         -24.3544   51.0880   -8.4383 C.ar    1  UNL1        0.0997
      4 N         -23.0648   51.4685   -8.4011 N.ar    1  UNL1       -0.2137
      5 C         -22.9109   52.1129   -9.5896 C.ar    1  UNL1        0.1984
      6 N         -24.0316   52.1367  -10.3571 N.ar    1  UNL1       -0.3255
      7 C         -24.9307   51.4896   -9.6086 C.ar    1  UNL1        0.0755
      8 C         -26.2590   51.1975   -9.8825 C.ar    1  UNL1        0.0325
      9 C         -26.9907   50.4976   -8.9560 C.ar    1  UNL1        0.1401
     10 O         -28.2694   50.2690   -9.4210 O.3     1  UNL1       -0.4824
     11 C         -28.4516   50.8406  -10.7204 C.3     1  UNL1        0.1375
     12 C         -29.5683   51.8908  -10.6541 C.3     1  UNL1        0.0439
     13 C         -28.8204   49.7284  -11.7109 C.3     1  UNL1        0.0439
     14 C         -27.0767   51.4948  -11.0850 C.3     1  UNL1        0.0709
     15 H         -24.1648   52.5442  -11.3092 H       1  UNL1        0.1686
     16 N         -26.6083   48.3780   -5.8453 N.am    1  UNL1       -0.2799
     17 C         -27.2346   49.3153   -6.7338 C.2     1  UNL1        0.2525
     18 O         -28.4851   49.4778   -6.6900 O.2     1  UNL1       -0.2697
     19 H         -25.7044   47.9419   -6.1348 H       1  UNL1        0.1552
     20 C         -26.2021   49.5978   -3.2430 C.3     1  UNL1        0.0323
     21 C         -27.1106   48.4128   -3.4298 C.ar    1  UNL1       -0.0076
     22 C         -27.8026   47.8890   -2.3257 C.ar    1  UNL1        0.0009
     23 C         -28.6498   46.7789   -2.4679 C.ar    1  UNL1        0.0720
     24 C         -28.8503   46.2332   -3.7447 C.ar    1  UNL1        0.0165
     25 C         -28.1781   46.7505   -4.8558 C.ar    1  UNL1        0.0707
     26 CL        -28.5297   46.0681   -6.4399 Cl      1  UNL1       -0.0810
     27 C         -27.2910   47.8345   -4.7047 C.ar    1  UNL1        0.0572
     28 C         -29.4202   46.2513   -1.2832 C.3     1  UNL1        0.4186
     29 F         -28.6140   45.3893   -0.5635 F       1  UNL1       -0.1659
     30 F         -30.5506   45.5696   -1.6999 F       1  UNL1       -0.1659
     31 F         -29.8212   47.2880   -0.4582 F       1  UNL1       -0.1659
     32 N         -21.6590   52.6793   -9.9962 N.pl3   1  UNL1       -0.2816
     33 H         -21.6789   53.5318  -10.5996 H       1  UNL1        0.1551
     34 C         -20.4023   52.2605   -9.4468 C.ar    1  UNL1        0.0889
     35 C         -20.1202   52.5245   -8.0970 C.ar    1  UNL1        0.1543
     36 F         -21.0368   53.1510   -7.3171 F       1  UNL1       -0.2028
     37 C         -18.9013   52.1258   -7.5407 C.ar    1  UNL1        0.0310
     38 C         -17.9505   51.4751   -8.3297 C.ar    1  UNL1        0.0033
     39 C         -18.2111   51.2307   -9.6802 C.ar    1  UNL1        0.0128
     40 C         -19.4287   51.6259  -10.2472 C.ar    1  UNL1        0.0733
     41 CL        -19.6765   51.3721  -11.9707 Cl      1  UNL1       -0.0809
@<TRIPOS>BOND
     1    20    21    1
     2    21    22   ar
     3    22    23   ar
     4    23    28    1
     5    28    29    1
     6    28    30    1
     7    28    31    1
     8    23    24   ar
     9    24    25   ar
    10    25    26    1
    11    25    27   ar
    12    27    16    1
    13    16    17   am
    14    17    18    2
    15    17     1    1
    16     1     2   ar
    17     2     3   ar
    18     3     4   ar
    19     4     5   ar
    20     5    32    1
    21    32    34    1
    22    34    35   ar
    23    35    36    1
    24    35    37   ar
    25    37    38   ar
    26    38    39   ar
    27    39    40   ar
    28    40    41    1
    29     5     6   ar
    30     6     7   ar
    31     7     8   ar
    32     8     9   ar
    33     9    10    1
    34    10    11    1
    35    11    12    1
    36    11    13    1
    37    11    14    1
    38    27    21   ar
    39     9     1   ar
    40     7     3   ar
    41    14     8    1
    42    40    34   ar
    43    16    19    1
    44    32    33    1
    45     6    15    1
@<TRIPOS>MOLECULE
*****
 41 45 0 0 0
SMALL
GASTEIGER

@<TRIPOS>ATOM
      1 C         -27.3708   51.2707  -10.3463 C.ar    1  UNL1        0.0888
      2 C         -27.6150   51.2780  -11.7473 C.ar    1  UNL1        0.0282
      3 C         -28.8726   50.8577  -12.2046 C.ar    1  UNL1        0.0997
      4 N         -29.3071   50.7839  -13.4754 N.ar    1  UNL1       -0.2137
      5 C         -30.5754   50.3134  -13.3287 C.ar    1  UNL1        0.1984
      6 N         -30.9363   50.0833  -12.0394 N.ar    1  UNL1       -0.3255
      7 C         -29.8490   50.4391  -11.3476 C.ar    1  UNL1        0.0755
      8 C         -29.6277   50.4118   -9.9783 C.ar    1  UNL1        0.0325
      9 C         -28.4087   50.8152   -9.4936 C.ar    1  UNL1        0.1401
     10 O         -28.3640   50.6796   -8.1213 O.3     1  UNL1       -0.4824
     11 C         -29.6038   50.1732   -7.6162 C.3     1  UNL1        0.1375
     12 C         -30.2098   51.2013   -6.6519 C.3     1  UNL1        0.0439
     13 C         -29.3458   48.8459   -6.8913 C.3     1  UNL1        0.0439
     14 C         -30.5137   49.9676   -8.8735 C.3     1  UNL1        0.0709
     15 H         -31.8361   49.7048  -11.6687 H       1  UNL1        0.1686
     16 N         -24.8400   51.1408  -10.3224 N.am    1  UNL1       -0.2799
     17 C         -26.0602   51.6979   -9.8114 C.2     1  UNL1        0.2525
     18 O         -26.0170   52.5445   -8.8769 O.2     1  UNL1       -0.2697
     19 H         -24.8684   50.1936  -10.7618 H       1  UNL1        0.1552
     20 C         -23.5444   52.7884  -12.3302 C.3     1  UNL1        0.0323
     21 C         -22.9094   52.5240  -10.9917 C.ar    1  UNL1       -0.0076
     22 C         -21.6670   53.1033  -10.6873 C.ar    1  UNL1        0.0009
     23 C         -21.0465   52.8672   -9.4505 C.ar    1  UNL1        0.0720
     24 C         -21.7141   52.0934   -8.4893 C.ar    1  UNL1        0.0165
     25 C         -22.9568   51.5195   -8.7725 C.ar    1  UNL1        0.0707
     26 CL        -23.7743   50.6213   -7.4983 Cl      1  UNL1       -0.0810
     27 C         -23.5573   51.7173  -10.0315 C.ar    1  UNL1        0.0572
     28 C         -19.7320   53.5286   -9.1186 C.3     1  UNL1        0.4186
     29 F         -18.7088   52.8533   -9.7573 F       1  UNL1       -0.1659
     30 F         -19.5045   53.5055   -7.7533 F       1  UNL1       -0.1659
     31 F         -19.7291   54.8491   -9.5341 F       1  UNL1       -0.1659
     32 N         -31.4295   50.0540  -14.4498 N.pl3   1  UNL1       -0.2816
     33 H         -32.3148   50.6029  -14.5296 H       1  UNL1        0.1551
     34 C         -31.0278   49.2404  -15.5601 C.ar    1  UNL1        0.0889
     35 C         -31.1296   49.7557  -16.8622 C.ar    1  UNL1        0.1543
     36 F         -31.5841   51.0182  -17.0639 F       1  UNL1       -0.2028
     37 C         -30.7443   48.9799  -17.9594 C.ar    1  UNL1        0.0310
     38 C         -30.2695   47.6810  -17.7668 C.ar    1  UNL1        0.0033
     39 C         -30.1886   47.1497  -16.4774 C.ar    1  UNL1        0.0128
     40 C         -30.5719   47.9182  -15.3717 C.ar    1  UNL1        0.0733
     41 CL        -30.5320   47.1767  -13.7764 Cl      1  UNL1       -0.0809
@<TRIPOS>BOND
     1    20    21    1
     2    21    22   ar
     3    22    23   ar
     4    23    28    1
     5    28    29    1
     6    28    30    1
     7    28    31    1
     8    23    24   ar
     9    24    25   ar
    10    25    26    1
    11    25    27   ar
    12    27    16    1
    13    16    17   am
    14    17    18    2
    15    17     1    1
    16     1     2   ar
    17     2     3   ar
    18     3     4   ar
    19     4     5   ar
    20     5    32    1
    21    32    34    1
    22    34    35   ar
    23    35    36    1
    24    35    37   ar
    25    37    38   ar
    26    38    39   ar
    27    39    40   ar
    28    40    41    1
    29     5     6   ar
    30     6     7   ar
    31     7     8   ar
    32     8     9   ar
    33     9    10    1
    34    10    11    1
    35    11    12    1
    36    11    13    1
    37    11    14    1
    38    27    21   ar
    39     9     1   ar
    40     7     3   ar
    41    14     8    1
    42    40    34   ar
    43    16    19    1
    44    32    33    1
    45     6    15    1
