@<TRIPOS>MOLECULE
*****
 38 42 0 0 0
SMALL
GASTEIGER

@<TRIPOS>ATOM
      1 C         -11.2475  -10.6987   31.4062 C.ar    1  UNL1        0.1316
      2 C         -12.2228  -10.8198   32.4126 C.ar    1  UNL1        0.0280
      3 C         -12.6362  -12.0829   32.8623 C.ar    1  UNL1        0.0664
      4 C         -12.0770  -13.2520   32.3052 C.ar    1  UNL1        0.2091
      5 N         -11.1437  -13.0931   31.3166 N.ar    1  UNL1       -0.1315
      6 C         -10.4705  -13.9988   30.5803 C.ar    1  UNL1        0.3133
      7 C          -9.6598  -13.3014   29.6948 C.ar    1  UNL1        0.1320
      8 N          -9.8278  -11.9717   29.8760 N.ar    1  UNL1       -0.2941
      9 C         -10.7312  -11.8883   30.8728 C.ar    1  UNL1        0.3119
     10 H          -9.3908  -11.2345   29.3914 H       1  UNL1        0.1718
     11 N         -10.1768   -6.7876   29.8257 N.3     1  UNL1       -0.2647
     12 C          -9.2910   -7.9633   29.6568 C.3     1  UNL1        0.0941
     13 C         -10.0745   -9.2790   29.6822 C.3     1  UNL1        0.1084
     14 N         -10.8170   -9.4013   30.9421 N.pl3   1  UNL1       -0.2988
     15 C         -11.1107   -8.1875   31.7135 C.3     1  UNL1        0.1084
     16 C         -11.3145   -7.0005   30.7632 C.3     1  UNL1        0.0941
     17 C          -9.3821   -5.5949   30.1803 C.3     1  UNL1        0.1200
     18 N          -6.3257   -6.3669   32.0573 N.ar    1  UNL1       -0.3128
     19 C          -7.3234   -6.6403   32.9230 C.ar    1  UNL1        0.1780
     20 N          -8.5459   -6.3973   32.4055 N.ar    1  UNL1       -0.2273
     21 C          -8.2979   -5.9590   31.1543 C.ar    1  UNL1        0.0885
     22 C          -6.9323   -5.9324   30.9329 C.ar    1  UNL1        0.0537
     23 C          -6.2481   -5.5752   29.6447 C.3     1  UNL1        0.0514
     24 C          -4.7086   -7.6856   33.3505 C.3     1  UNL1        0.0265
     25 C          -4.9006   -6.6027   32.2949 C.3     1  UNL1        0.1073
     26 C          -8.7380  -13.8754   28.6832 C.ar    1  UNL1        0.0218
     27 C          -7.3947  -13.4752   28.6025 C.ar    1  UNL1        0.0013
     28 C          -6.5413  -14.0264   27.6423 C.ar    1  UNL1       -0.0042
     29 C          -7.0045  -14.9995   26.7272 C.ar    1  UNL1       -0.0228
     30 C          -8.3571  -15.3924   26.8194 C.ar    1  UNL1       -0.0042
     31 C          -9.2074  -14.8403   27.7798 C.ar    1  UNL1        0.0013
     32 C          -6.0981  -15.6338   25.6517 C.3     1  UNL1        0.0189
     33 C          -6.9729  -16.2307   24.5277 C.3     1  UNL1        0.0044
     34 C          -5.2485  -16.7543   26.2900 C.3     1  UNL1        0.0044
     35 C          -5.1261  -14.6198   25.0018 C.3     1  UNL1        0.0044
     36 C         -12.5277  -14.6237   32.7867 C.3     1  UNL1        0.0873
     37 C         -12.2036  -14.8247   34.2725 C.3     1  UNL1        0.0111
     38 C         -14.0218  -14.8328   32.5159 C.3     1  UNL1        0.0111
@<TRIPOS>BOND
     1    24    25    1
     2    25    18    1
     3    18    19   ar
     4    19    20   ar
     5    20    21   ar
     6    21    17    1
     7    17    11    1
     8    11    12    1
     9    12    13    1
    10    13    14    1
    11    14     1    1
    12     1     2   ar
    13     2     3   ar
    14     3     4   ar
    15     4    36    1
    16    36    37    1
    17    36    38    1
    18     4     5   ar
    19     5     6   ar
    20     6     7   ar
    21     7    26    1
    22    26    27   ar
    23    27    28   ar
    24    28    29   ar
    25    29    32    1
    26    32    33    1
    27    32    34    1
    28    32    35    1
    29    29    30   ar
    30    30    31   ar
    31     7     8   ar
    32     8     9   ar
    33    14    15    1
    34    15    16    1
    35    21    22   ar
    36    22    23    1
    37    22    18   ar
    38    16    11    1
    39     9     1   ar
    40     9     5   ar
    41    31    26   ar
    42     8    10    1
@<TRIPOS>MOLECULE
*****
 38 42 0 0 0
SMALL
GASTEIGER

@<TRIPOS>ATOM
      1 C         -10.9385   -9.9065   31.8171 C.ar    1  UNL1        0.1316
      2 C         -11.9517   -9.8793   32.7925 C.ar    1  UNL1        0.0280
      3 C         -12.5732  -11.0644   33.2142 C.ar    1  UNL1        0.0664
      4 C         -12.1885  -12.3030   32.6596 C.ar    1  UNL1        0.2091
      5 N         -11.2113  -12.2864   31.7013 N.ar    1  UNL1       -0.1315
      6 C         -10.6669  -13.2817   30.9742 C.ar    1  UNL1        0.3133
      7 C          -9.7289  -12.7148   30.1219 C.ar    1  UNL1        0.1320
      8 N          -9.6903  -11.3767   30.3144 N.ar    1  UNL1       -0.2941
      9 C         -10.6000  -11.1589   31.2848 C.ar    1  UNL1        0.3119
     10 H          -9.1275  -10.7143   29.8521 H       1  UNL1        0.1718
     11 N          -9.1472   -6.0978   30.7097 N.3     1  UNL1       -0.2647
     12 C         -10.0033   -6.8572   29.7684 C.3     1  UNL1        0.0941
     13 C         -11.0042   -7.7552   30.5015 C.3     1  UNL1        0.1084
     14 N         -10.2942   -8.6901   31.3821 N.pl3   1  UNL1       -0.2988
     15 C          -8.9275   -8.3653   31.8079 C.3     1  UNL1        0.1084
     16 C          -8.7687   -6.8452   31.9412 C.3     1  UNL1        0.0941
     17 C          -7.9679   -5.5561   30.0056 C.3     1  UNL1        0.1200
     18 N          -5.3121   -8.0613   30.3686 N.ar    1  UNL1       -0.3128
     19 C          -4.8911   -7.0219   31.1184 C.ar    1  UNL1        0.1780
     20 N          -5.7474   -5.9791   31.0943 N.ar    1  UNL1       -0.2273
     21 C          -6.7543   -6.3920   30.2975 C.ar    1  UNL1        0.0885
     22 C          -6.4920   -7.6719   29.8420 C.ar    1  UNL1        0.0537
     23 C          -7.3979   -8.5151   28.9914 C.3     1  UNL1        0.0514
     24 C          -4.2309   -9.6252   28.8156 C.3     1  UNL1        0.0265
     25 C          -4.6454   -9.3599   30.2584 C.3     1  UNL1        0.1073
     26 C          -8.8781  -13.4199   29.1312 C.ar    1  UNL1        0.0218
     27 C          -9.3877  -14.4527   28.3282 C.ar    1  UNL1        0.0013
     28 C          -8.5709  -15.1063   27.4010 C.ar    1  UNL1       -0.0042
     29 C          -7.2122  -14.7477   27.2453 C.ar    1  UNL1       -0.0228
     30 C          -6.7130  -13.7080   28.0591 C.ar    1  UNL1       -0.0042
     31 C          -7.5312  -13.0567   28.9846 C.ar    1  UNL1        0.0013
     32 C          -6.2750  -15.4419   26.2352 C.3     1  UNL1        0.0189
     33 C          -5.1076  -14.4951   25.8809 C.3     1  UNL1        0.0044
     34 C          -7.0640  -15.7852   24.9528 C.3     1  UNL1        0.0044
     35 C          -5.6650  -16.7570   26.7774 C.3     1  UNL1        0.0044
     36 C         -12.8650  -13.5897   33.1106 C.3     1  UNL1        0.0873
     37 C         -12.8627  -14.6397   31.9923 C.3     1  UNL1        0.0111
     38 C         -12.2043  -14.1367   34.3809 C.3     1  UNL1        0.0111
@<TRIPOS>BOND
     1    24    25    1
     2    25    18    1
     3    18    19   ar
     4    19    20   ar
     5    20    21   ar
     6    21    17    1
     7    17    11    1
     8    11    12    1
     9    12    13    1
    10    13    14    1
    11    14     1    1
    12     1     2   ar
    13     2     3   ar
    14     3     4   ar
    15     4    36    1
    16    36    37    1
    17    36    38    1
    18     4     5   ar
    19     5     6   ar
    20     6     7   ar
    21     7    26    1
    22    26    27   ar
    23    27    28   ar
    24    28    29   ar
    25    29    32    1
    26    32    33    1
    27    32    34    1
    28    32    35    1
    29    29    30   ar
    30    30    31   ar
    31     7     8   ar
    32     8     9   ar
    33    14    15    1
    34    15    16    1
    35    21    22   ar
    36    22    23    1
    37    22    18   ar
    38    16    11    1
    39     9     1   ar
    40     9     5   ar
    41    31    26   ar
    42     8    10    1
@<TRIPOS>MOLECULE
*****
 38 42 0 0 0
SMALL
GASTEIGER

@<TRIPOS>ATOM
      1 C         -10.9576  -10.6353   31.8769 C.ar    1  UNL1        0.1316
      2 C         -12.0261  -10.7278   32.7871 C.ar    1  UNL1        0.0280
      3 C         -12.6745  -11.9519   33.0097 C.ar    1  UNL1        0.0664
      4 C         -12.2614  -13.1094   32.3174 C.ar    1  UNL1        0.2091
      5 N         -11.2298  -12.9754   31.4279 N.ar    1  UNL1       -0.1315
      6 C         -10.6465  -13.8704   30.6067 C.ar    1  UNL1        0.3133
      7 C          -9.6586  -13.2048   29.8935 C.ar    1  UNL1        0.1320
      8 N          -9.6277  -11.9049   30.2653 N.ar    1  UNL1       -0.2941
      9 C         -10.5920  -11.8089   31.2021 C.ar    1  UNL1        0.3119
     10 H          -9.0369  -11.1927   29.9291 H       1  UNL1        0.1718
     11 N          -9.0453   -6.7511   31.4322 N.3     1  UNL1       -0.2647
     12 C         -10.0647   -7.2304   30.4696 C.3     1  UNL1        0.0941
     13 C         -11.0294   -8.2335   31.1091 C.3     1  UNL1        0.1084
     14 N         -10.2855   -9.3786   31.6465 N.pl3   1  UNL1       -0.2988
     15 C          -8.8565   -9.2208   31.9427 C.3     1  UNL1        0.1084
     16 C          -8.5721   -7.7832   32.3964 C.3     1  UNL1        0.0941
     17 C          -7.9264   -6.1084   30.7148 C.3     1  UNL1        0.1200
     18 N          -5.3033   -8.4008   29.5638 N.ar    1  UNL1       -0.3128
     19 C          -6.3657   -8.6971   28.7870 C.ar    1  UNL1        0.1780
     20 N          -7.4520   -7.9520   29.0806 N.ar    1  UNL1       -0.2273
     21 C          -7.0440   -7.1471   30.0831 C.ar    1  UNL1        0.0885
     22 C          -5.7229   -7.4203   30.3905 C.ar    1  UNL1        0.0537
     23 C          -4.8770   -6.6950   31.3973 C.3     1  UNL1        0.0514
     24 C          -4.0347  -10.3431   28.7611 C.3     1  UNL1        0.0265
     25 C          -3.9640   -8.9775   29.4346 C.3     1  UNL1        0.1073
     26 C          -8.7532  -13.7804   28.8680 C.ar    1  UNL1        0.0218
     27 C          -7.4227  -13.3513   28.7389 C.ar    1  UNL1        0.0013
     28 C          -6.5847  -13.9044   27.7663 C.ar    1  UNL1       -0.0042
     29 C          -7.0511  -14.9084   26.8869 C.ar    1  UNL1       -0.0228
     30 C          -8.3907  -15.3301   27.0277 C.ar    1  UNL1       -0.0042
     31 C          -9.2257  -14.7760   28.0003 C.ar    1  UNL1        0.0013
     32 C          -6.1615  -15.5460   25.7994 C.3     1  UNL1        0.0189
     33 C          -5.1546  -14.4977   25.2778 C.3     1  UNL1        0.0044
     34 C          -7.0460  -16.0330   24.6309 C.3     1  UNL1        0.0044
     35 C          -5.3512  -16.7606   26.3128 C.3     1  UNL1        0.0044
     36 C         -12.9668  -14.4375   32.5523 C.3     1  UNL1        0.0873
     37 C         -12.3317  -15.2048   33.7190 C.3     1  UNL1        0.0111
     38 C         -14.4668  -14.2245   32.7849 C.3     1  UNL1        0.0111
@<TRIPOS>BOND
     1    24    25    1
     2    25    18    1
     3    18    19   ar
     4    19    20   ar
     5    20    21   ar
     6    21    17    1
     7    17    11    1
     8    11    12    1
     9    12    13    1
    10    13    14    1
    11    14     1    1
    12     1     2   ar
    13     2     3   ar
    14     3     4   ar
    15     4    36    1
    16    36    37    1
    17    36    38    1
    18     4     5   ar
    19     5     6   ar
    20     6     7   ar
    21     7    26    1
    22    26    27   ar
    23    27    28   ar
    24    28    29   ar
    25    29    32    1
    26    32    33    1
    27    32    34    1
    28    32    35    1
    29    29    30   ar
    30    30    31   ar
    31     7     8   ar
    32     8     9   ar
    33    14    15    1
    34    15    16    1
    35    21    22   ar
    36    22    23    1
    37    22    18   ar
    38    16    11    1
    39     9     1   ar
    40     9     5   ar
    41    31    26   ar
    42     8    10    1
