@<TRIPOS>MOLECULE
*****
 46 51 0 0 0
SMALL
GASTEIGER

@<TRIPOS>ATOM
      1 C          61.4659   88.0298    8.7344 C.ar    1  UNL1        0.0743
      2 C          61.7718   88.8214    9.8508 C.ar    1  UNL1        0.0196
      3 C          61.7939   88.2600   11.1276 C.ar    1  UNL1        0.0356
      4 C          61.4978   86.8966   11.2928 C.ar    1  UNL1        0.1323
      5 N          61.1832   86.1537   10.1950 N.ar    1  UNL1       -0.2235
      6 C          61.1525   86.6748    8.9400 C.ar    1  UNL1        0.1179
      7 S          60.7413   85.5936    7.5710 S.3     1  UNL1       -0.1215
      8 H          59.3704   85.8935    7.6771 H       1  UNL1        0.1086
      9 N          61.5104   86.2769   12.5983 N.pl3   1  UNL1       -0.2932
     10 C          62.3195   86.8482   13.6887 C.3     1  UNL1        0.0923
     11 C          62.5773   85.8178   14.7930 C.3     1  UNL1        0.0252
     12 C          61.2592   85.2229   15.3353 C.3     1  UNL1        0.0472
     13 C          60.2178   84.9401   14.2152 C.3     1  UNL1        0.0252
     14 C          60.8176   84.9957   12.8060 C.3     1  UNL1        0.0923
     15 C          61.5539   83.9625   16.1640 C.3     1  UNL1        0.2054
     16 O          62.6590   83.2584   15.6001 O.3     1  UNL1       -0.4755
     17 C          62.5543   82.3052   14.5768 C.ar    1  UNL1        0.1388
     18 C          61.8359   81.1055   14.7343 C.ar    1  UNL1        0.0369
     19 C          61.7626   80.1885   13.6838 C.ar    1  UNL1        0.0033
     20 C          62.4012   80.4553   12.4707 C.ar    1  UNL1        0.0066
     21 C          63.1233   81.6486   12.2951 C.ar    1  UNL1        0.0785
     22 C          63.1923   82.5671   13.3578 C.ar    1  UNL1        0.0433
     23 C          63.8023   81.9377   11.0126 C.2     1  UNL1        0.3381
     24 O          63.1708   81.8602    9.9238 O.2     1  UNL1       -0.2451
     25 O          65.1472   82.2986   10.9957 O.3     1  UNL1       -0.4771
     26 H          65.6215   82.4986   10.1233 H       1  UNL1        0.2954
     27 C          60.1780   88.9922    6.7765 C.2     1  UNL1        0.2840
     28 O          59.0690   88.7554    7.3261 O.2     1  UNL1       -0.2665
     29 N          61.4045   88.6028    7.4173 N.am    1  UNL1       -0.2763
     30 H          62.3058   88.7564    6.9157 H       1  UNL1        0.1553
     31 C          57.6273   90.0658    5.0986 C.3     1  UNL1        0.0345
     32 C          59.0809   90.1325    4.7395 C.ar    1  UNL1        0.0202
     33 C          60.1815   89.6495    5.4581 C.ar    1  UNL1        0.1946
     34 O          61.2922   89.8458    4.7696 O.2     1  UNL1       -0.4492
     35 C          60.9717   90.4530    3.6531 C.ar    1  UNL1        0.1452
     36 C          61.8276   90.8590    2.6351 C.ar    1  UNL1        0.0375
     37 C          61.2655   91.4986    1.5162 C.ar    1  UNL1        0.0031
     38 C          59.8641   91.7208    1.4314 C.ar    1  UNL1        0.0002
     39 C          59.0283   91.2895    2.4895 C.ar    1  UNL1        0.0028
     40 C          59.6211   90.6605    3.5842 C.ar    1  UNL1        0.0337
     41 C          59.2815   92.3974    0.2449 C.ar    1  UNL1        0.0000
     42 C          60.0821   93.2085   -0.5818 C.ar    1  UNL1        0.0000
     43 C          59.5304   93.8453   -1.6977 C.ar    1  UNL1        0.0000
     44 C          58.1773   93.6801   -2.0015 C.ar    1  UNL1        0.0000
     45 C          57.3725   92.8780   -1.1895 C.ar    1  UNL1        0.0000
     46 C          57.9186   92.2396   -0.0717 C.ar    1  UNL1        0.0000
@<TRIPOS>BOND
     1    31    32    1
     2    32    33   ar
     3    33    27    1
     4    27    28    2
     5    27    29   am
     6    29     1    1
     7     1     2   ar
     8     2     3   ar
     9     3     4   ar
    10     4     9    1
    11     9    10    1
    12    10    11    1
    13    11    12    1
    14    12    15    1
    15    15    16    1
    16    16    17    1
    17    17    18   ar
    18    18    19   ar
    19    19    20   ar
    20    20    21   ar
    21    21    23    1
    22    23    24    2
    23    23    25    1
    24    21    22   ar
    25    12    13    1
    26    13    14    1
    27     4     5   ar
    28     5     6   ar
    29     6     7    1
    30    33    34   ar
    31    34    35   ar
    32    35    36   ar
    33    36    37   ar
    34    37    38   ar
    35    38    41    1
    36    41    42   ar
    37    42    43   ar
    38    43    44   ar
    39    44    45   ar
    40    45    46   ar
    41    38    39   ar
    42    39    40   ar
    43    40    32   ar
    44     6     1   ar
    45    40    35   ar
    46    14     9    1
    47    46    41   ar
    48    22    17   ar
    49    29    30    1
    50    25    26    1
    51     7     8    1
@<TRIPOS>MOLECULE
*****
 46 51 0 0 0
SMALL
GASTEIGER

@<TRIPOS>ATOM
      1 C          61.4614   87.8568    8.7120 C.ar    1  UNL1        0.0743
      2 C          61.7884   88.6395    9.8288 C.ar    1  UNL1        0.0196
      3 C          61.8198   88.0713   11.1024 C.ar    1  UNL1        0.0356
      4 C          61.5120   86.7101   11.2642 C.ar    1  UNL1        0.1323
      5 N          61.1770   85.9761   10.1664 N.ar    1  UNL1       -0.2235
      6 C          61.1368   86.5039    8.9145 C.ar    1  UNL1        0.1179
      7 S          60.6987   85.4340    7.5450 S.3     1  UNL1       -0.1215
      8 H          59.3322   85.7471    7.6688 H       1  UNL1        0.1086
      9 N          61.5337   86.0835   12.5662 N.pl3   1  UNL1       -0.2932
     10 C          62.4066   86.6054   13.6320 C.3     1  UNL1        0.0923
     11 C          62.6448   85.5569   14.7235 C.3     1  UNL1        0.0252
     12 C          61.3152   85.0295   15.3060 C.3     1  UNL1        0.0472
     13 C          60.2247   84.8082   14.2192 C.3     1  UNL1        0.0252
     14 C          60.7811   84.8397   12.7915 C.3     1  UNL1        0.0923
     15 C          61.5692   83.7508   16.1201 C.3     1  UNL1        0.2054
     16 O          62.7010   83.0587   15.5959 O.3     1  UNL1       -0.4755
     17 C          62.6786   82.2575   14.4451 C.ar    1  UNL1        0.1388
     18 C          63.5694   82.4521   13.3733 C.ar    1  UNL1        0.0369
     19 C          63.5054   81.6266   12.2489 C.ar    1  UNL1        0.0033
     20 C          62.5577   80.6031   12.1803 C.ar    1  UNL1        0.0066
     21 C          61.6597   80.3936   13.2415 C.ar    1  UNL1        0.0785
     22 C          61.7307   81.2292   14.3705 C.ar    1  UNL1        0.0433
     23 C          60.6530   79.3111   13.1755 C.2     1  UNL1        0.3381
     24 O          59.5996   79.3755   13.8655 O.2     1  UNL1       -0.2451
     25 O          60.8600   78.2091   12.3495 O.3     1  UNL1       -0.4771
     26 H          60.1773   77.4627   12.2969 H       1  UNL1        0.2954
     27 C          60.1795   88.9574    6.8243 C.2     1  UNL1        0.2840
     28 O          59.0830   88.8387    7.4338 O.2     1  UNL1       -0.2665
     29 N          61.3903   88.4371    7.3987 N.am    1  UNL1       -0.2763
     30 H          62.2744   88.4951    6.8485 H       1  UNL1        0.1553
     31 C          57.6264   90.0219    5.1443 C.3     1  UNL1        0.0345
     32 C          59.0801   90.0938    4.7864 C.ar    1  UNL1        0.0202
     33 C          60.1818   89.6146    5.5059 C.ar    1  UNL1        0.1946
     34 O          61.2923   89.8149    4.8183 O.2     1  UNL1       -0.4492
     35 C          60.9706   90.4209    3.7015 C.ar    1  UNL1        0.1452
     36 C          61.8259   90.8299    2.6842 C.ar    1  UNL1        0.0375
     37 C          61.2624   91.4675    1.5649 C.ar    1  UNL1        0.0031
     38 C          59.8603   91.6847    1.4788 C.ar    1  UNL1        0.0002
     39 C          59.0252   91.2505    2.5362 C.ar    1  UNL1        0.0028
     40 C          59.6193   90.6236    3.6315 C.ar    1  UNL1        0.0337
     41 C          59.2763   92.3592    0.2918 C.ar    1  UNL1        0.0000
     42 C          57.9235   92.1667   -0.0476 C.ar    1  UNL1        0.0000
     43 C          57.3766   92.8023   -1.1666 C.ar    1  UNL1        0.0000
     44 C          58.1708   93.6357   -1.9574 C.ar    1  UNL1        0.0000
     45 C          59.5140   93.8350   -1.6312 C.ar    1  UNL1        0.0000
     46 C          60.0664   93.2012   -0.5140 C.ar    1  UNL1        0.0000
@<TRIPOS>BOND
     1    31    32    1
     2    32    33   ar
     3    33    27    1
     4    27    28    2
     5    27    29   am
     6    29     1    1
     7     1     2   ar
     8     2     3   ar
     9     3     4   ar
    10     4     9    1
    11     9    10    1
    12    10    11    1
    13    11    12    1
    14    12    15    1
    15    15    16    1
    16    16    17    1
    17    17    18   ar
    18    18    19   ar
    19    19    20   ar
    20    20    21   ar
    21    21    23    1
    22    23    24    2
    23    23    25    1
    24    21    22   ar
    25    12    13    1
    26    13    14    1
    27     4     5   ar
    28     5     6   ar
    29     6     7    1
    30    33    34   ar
    31    34    35   ar
    32    35    36   ar
    33    36    37   ar
    34    37    38   ar
    35    38    41    1
    36    41    42   ar
    37    42    43   ar
    38    43    44   ar
    39    44    45   ar
    40    45    46   ar
    41    38    39   ar
    42    39    40   ar
    43    40    32   ar
    44     6     1   ar
    45    40    35   ar
    46    14     9    1
    47    46    41   ar
    48    22    17   ar
    49    29    30    1
    50    25    26    1
    51     7     8    1
@<TRIPOS>MOLECULE
*****
 46 51 0 0 0
SMALL
GASTEIGER

@<TRIPOS>ATOM
      1 C          59.7753   89.2784    6.0214 C.ar    1  UNL1        0.0743
      2 C          60.9486   89.7538    5.4179 C.ar    1  UNL1        0.0196
      3 C          60.8824   90.5074    4.2459 C.ar    1  UNL1        0.0356
      4 C          59.6328   90.7809    3.6648 C.ar    1  UNL1        0.1323
      5 N          58.5092   90.2900    4.2588 N.ar    1  UNL1       -0.2235
      6 C          58.5444   89.5519    5.3996 C.ar    1  UNL1        0.1179
      7 S          56.9976   88.9752    6.0974 S.3     1  UNL1       -0.1215
      8 H          57.0592   87.7702    5.3730 H       1  UNL1        0.1086
      9 N          59.5213   91.5582    2.4517 N.pl3   1  UNL1       -0.2932
     10 C          58.4873   91.2387    1.4522 C.3     1  UNL1        0.0923
     11 C          58.8333   91.8289    0.0812 C.3     1  UNL1        0.0252
     12 C          59.0732   93.3525    0.1615 C.3     1  UNL1        0.0472
     13 C          59.8704   93.7728    1.4292 C.3     1  UNL1        0.0252
     14 C          60.5260   92.5894    2.1493 C.3     1  UNL1        0.0923
     15 C          59.7559   93.8450   -1.1244 C.3     1  UNL1        0.2054
     16 O          60.7617   92.9165   -1.5260 O.3     1  UNL1       -0.4755
     17 C          62.1222   93.0319   -1.2056 C.ar    1  UNL1        0.1388
     18 C          63.0248   93.7622   -2.0006 C.ar    1  UNL1        0.0369
     19 C          64.3706   93.8459   -1.6378 C.ar    1  UNL1        0.0033
     20 C          64.8297   93.2060   -0.4845 C.ar    1  UNL1        0.0066
     21 C          63.9425   92.4720    0.3221 C.ar    1  UNL1        0.0785
     22 C          62.5886   92.3926   -0.0501 C.ar    1  UNL1        0.0433
     23 C          64.4221   91.7915    1.5454 C.2     1  UNL1        0.3381
     24 O          63.6045   91.4091    2.4259 O.2     1  UNL1       -0.2451
     25 O          65.7832   91.5668    1.7362 O.3     1  UNL1       -0.4771
     26 H          66.1220   91.1019    2.5699 H       1  UNL1        0.2954
     27 C          59.8185   87.0332    7.1941 C.2     1  UNL1        0.2840
     28 O          59.6627   86.4089    6.1106 O.2     1  UNL1       -0.2665
     29 N          59.8309   88.4707    7.2093 N.am    1  UNL1       -0.2763
     30 H          59.9020   88.9642    8.1253 H       1  UNL1        0.1553
     31 C          62.0254   84.7630    7.8642 C.3     1  UNL1        0.0345
     32 C          60.9257   85.2876    8.7369 C.ar    1  UNL1        0.0202
     33 C          59.9594   86.2561    8.4376 C.ar    1  UNL1        0.1946
     34 O          59.1248   86.3906    9.4532 O.2     1  UNL1       -0.4492
     35 C          59.5142   85.5776   10.4047 C.ar    1  UNL1        0.1452
     36 C          58.9317   85.3974   11.6544 C.ar    1  UNL1        0.0375
     37 C          59.5187   84.4649   12.5278 C.ar    1  UNL1        0.0031
     38 C          60.6721   83.7297   12.1411 C.ar    1  UNL1        0.0002
     39 C          61.2321   83.9425   10.8584 C.ar    1  UNL1        0.0028
     40 C          60.6243   84.8766   10.0196 C.ar    1  UNL1        0.0337
     41 C          61.2837   82.7475   13.0718 C.ar    1  UNL1        0.0000
     42 C          62.3596   83.1199   13.9001 C.ar    1  UNL1        0.0000
     43 C          62.9342   82.1925   14.7747 C.ar    1  UNL1        0.0000
     44 C          62.4429   80.8864   14.8334 C.ar    1  UNL1        0.0000
     45 C          61.3759   80.5047   14.0171 C.ar    1  UNL1        0.0000
     46 C          60.7981   81.4276   13.1399 C.ar    1  UNL1        0.0000
@<TRIPOS>BOND
     1    31    32    1
     2    32    33   ar
     3    33    27    1
     4    27    28    2
     5    27    29   am
     6    29     1    1
     7     1     2   ar
     8     2     3   ar
     9     3     4   ar
    10     4     9    1
    11     9    10    1
    12    10    11    1
    13    11    12    1
    14    12    15    1
    15    15    16    1
    16    16    17    1
    17    17    18   ar
    18    18    19   ar
    19    19    20   ar
    20    20    21   ar
    21    21    23    1
    22    23    24    2
    23    23    25    1
    24    21    22   ar
    25    12    13    1
    26    13    14    1
    27     4     5   ar
    28     5     6   ar
    29     6     7    1
    30    33    34   ar
    31    34    35   ar
    32    35    36   ar
    33    36    37   ar
    34    37    38   ar
    35    38    41    1
    36    41    42   ar
    37    42    43   ar
    38    43    44   ar
    39    44    45   ar
    40    45    46   ar
    41    38    39   ar
    42    39    40   ar
    43    40    32   ar
    44     6     1   ar
    45    40    35   ar
    46    14     9    1
    47    46    41   ar
    48    22    17   ar
    49    29    30    1
    50    25    26    1
    51     7     8    1
