@<TRIPOS>MOLECULE
*****
 32 35 0 0 0
SMALL
GASTEIGER

@<TRIPOS>ATOM
      1 N          49.2769   10.3424  -22.6357 N.ar    1  UNL1       -0.3243
      2 C          50.0489   10.2636  -23.7414 C.ar    1  UNL1        0.0600
      3 C          51.2974    9.6391  -23.8484 C.ar    1  UNL1        0.0177
      4 C          51.9430    9.6438  -25.0905 C.ar    1  UNL1        0.0082
      5 C          51.3457   10.2684  -26.1985 C.ar    1  UNL1        0.0347
      6 BR         52.2392   10.2587  -27.8864 Br      1  UNL1       -0.0490
      7 C          50.0948   10.8950  -26.0750 C.ar    1  UNL1        0.0082
      8 C          49.4488   10.8839  -24.8262 C.ar    1  UNL1        0.0174
      9 C          48.2169   11.3847  -24.3675 C.ar    1  UNL1        0.0137
     10 C          47.1357   12.0966  -24.9749 C.ar    1  UNL1       -0.0148
     11 C          46.0228   12.4129  -24.1363 C.ar    1  UNL1        0.0307
     12 BR         44.4621   13.3621  -24.7426 Br      1  UNL1       -0.0493
     13 C          46.0073   12.0318  -22.7845 C.ar    1  UNL1        0.0079
     14 C          47.0729   11.3369  -22.2186 C.ar    1  UNL1        0.0177
     15 C          48.1691   11.0232  -23.0210 C.ar    1  UNL1        0.0597
     16 C          47.1218   12.5130  -26.4426 C.3     1  UNL1        0.0229
     17 C          46.1321   11.6700  -27.2695 C.3     1  UNL1        0.0047
     18 C          46.9942   14.0401  -26.6043 C.3     1  UNL1        0.0047
     19 C          49.5564    9.7285  -21.3272 C.3     1  UNL1        0.1429
     20 C          49.4031   10.7523  -20.1923 C.3     1  UNL1        0.2027
     21 F          49.3538   10.0833  -18.9811 F       1  UNL1       -0.2334
     22 C          50.5576   11.7665  -20.1580 C.3     1  UNL1        0.1259
     23 N          50.0424   13.1274  -20.2937 N.pl3   1  UNL1       -0.3157
     24 H          49.8704   13.6853  -19.4267 H       1  UNL1        0.1483
     25 C          48.4193   14.9640  -23.0566 C.ar    1  UNL1        0.2261
     26 C          49.4092   14.9254  -24.0550 C.ar    1  UNL1        0.0578
     27 C          50.6182   14.2768  -23.7962 C.ar    1  UNL1        0.0077
     28 C          50.8372   13.6762  -22.5558 C.ar    1  UNL1        0.0343
     29 C          49.8361   13.7335  -21.5794 C.ar    1  UNL1        0.1317
     30 N          48.6634   14.3700  -21.8582 N.ar    1  UNL1       -0.1969
     31 C          47.0165   16.9862  -23.4925 C.3     1  UNL1        0.2542
     32 O          47.1820   15.5936  -23.2487 O.3     1  UNL1       -0.4561
@<TRIPOS>BOND
     1    31    32    1
     2    32    25    1
     3    25    26   ar
     4    26    27   ar
     5    27    28   ar
     6    28    29   ar
     7    29    23    1
     8    23    22    1
     9    22    20    1
    10    20    21    1
    11    20    19    1
    12    19     1    1
    13     1     2   ar
    14     2     3   ar
    15     3     4   ar
    16     4     5   ar
    17     5     6    1
    18     5     7   ar
    19     7     8   ar
    20     8     9   ar
    21     9    10   ar
    22    10    16    1
    23    16    17    1
    24    16    18    1
    25    10    11   ar
    26    11    12    1
    27    11    13   ar
    28    13    14   ar
    29    14    15   ar
    30    29    30   ar
    31    30    25   ar
    32    15     1   ar
    33     8     2   ar
    34    15     9   ar
    35    23    24    1
@<TRIPOS>MOLECULE
*****
 32 35 0 0 0
SMALL
GASTEIGER

@<TRIPOS>ATOM
      1 N          47.0772   11.1757  -22.5430 N.ar    1  UNL1       -0.3243
      2 C          46.7106   11.9744  -23.5689 C.ar    1  UNL1        0.0600
      3 C          45.5571   12.7642  -23.6445 C.ar    1  UNL1        0.0177
      4 C          45.3560   13.5461  -24.7881 C.ar    1  UNL1        0.0082
      5 C          46.2941   13.5281  -25.8342 C.ar    1  UNL1        0.0347
      6 BR         46.0053   14.6066  -27.3837 Br      1  UNL1       -0.0490
      7 C          47.4444   12.7271  -25.7464 C.ar    1  UNL1        0.0082
      8 C          47.6437   11.9469  -24.5937 C.ar    1  UNL1        0.0174
      9 C          48.6638   11.0711  -24.1803 C.ar    1  UNL1        0.0137
     10 C          49.8957   10.6256  -24.7538 C.ar    1  UNL1       -0.0148
     11 C          50.6758    9.7166  -23.9746 C.ar    1  UNL1        0.0307
     12 BR         52.3637    8.9914  -24.5486 Br      1  UNL1       -0.0493
     13 C          50.2399    9.2950  -22.7077 C.ar    1  UNL1        0.0079
     14 C          49.0367    9.7464  -22.1716 C.ar    1  UNL1        0.0177
     15 C          48.2606   10.6308  -22.9196 C.ar    1  UNL1        0.0597
     16 C          50.3980   11.0756  -26.1223 C.3     1  UNL1        0.0229
     17 C          51.7217   11.8575  -26.0198 C.3     1  UNL1        0.0047
     18 C          50.3811    9.9245  -27.1465 C.3     1  UNL1        0.0047
     19 C          46.3735   11.0207  -21.2594 C.3     1  UNL1        0.1429
     20 C          46.5983   12.2417  -20.3547 C.3     1  UNL1        0.2027
     21 F          45.5405   12.3507  -19.4682 F       1  UNL1       -0.2334
     22 C          47.9107   12.1486  -19.5600 C.3     1  UNL1        0.1259
     23 N          48.7164   13.3501  -19.7673 N.pl3   1  UNL1       -0.3157
     24 H          48.9308   13.9562  -18.9431 H       1  UNL1        0.1483
     25 C          49.0821   14.8404  -23.1268 C.ar    1  UNL1        0.2261
     26 C          50.3278   14.3329  -23.5381 C.ar    1  UNL1        0.0578
     27 C          51.0383   13.4866  -22.6846 C.ar    1  UNL1        0.0077
     28 C          50.5130   13.1528  -21.4356 C.ar    1  UNL1        0.0343
     29 C          49.2731   13.6756  -21.0507 C.ar    1  UNL1        0.1317
     30 N          48.5980   14.4971  -21.9037 N.ar    1  UNL1       -0.1969
     31 C          47.2850   16.5474  -23.4487 C.3     1  UNL1        0.2542
     32 O          48.3137   15.6910  -23.9331 O.3     1  UNL1       -0.4561
@<TRIPOS>BOND
     1    31    32    1
     2    32    25    1
     3    25    26   ar
     4    26    27   ar
     5    27    28   ar
     6    28    29   ar
     7    29    23    1
     8    23    22    1
     9    22    20    1
    10    20    21    1
    11    20    19    1
    12    19     1    1
    13     1     2   ar
    14     2     3   ar
    15     3     4   ar
    16     4     5   ar
    17     5     6    1
    18     5     7   ar
    19     7     8   ar
    20     8     9   ar
    21     9    10   ar
    22    10    16    1
    23    16    17    1
    24    16    18    1
    25    10    11   ar
    26    11    12    1
    27    11    13   ar
    28    13    14   ar
    29    14    15   ar
    30    29    30   ar
    31    30    25   ar
    32    15     1   ar
    33     8     2   ar
    34    15     9   ar
    35    23    24    1
@<TRIPOS>MOLECULE
*****
 32 35 0 0 0
SMALL
GASTEIGER

@<TRIPOS>ATOM
      1 N          49.0127   13.6108  -22.6711 N.ar    1  UNL1       -0.3243
      2 C          49.8850   13.0739  -23.5518 C.ar    1  UNL1        0.0600
      3 C          50.4972   11.8179  -23.4642 C.ar    1  UNL1        0.0177
      4 C          51.3639   11.4236  -24.4904 C.ar    1  UNL1        0.0082
      5 C          51.6119   12.2785  -25.5777 C.ar    1  UNL1        0.0347
      6 BR         52.7927   11.7201  -26.9710 Br      1  UNL1       -0.0490
      7 C          50.9943   13.5378  -25.6497 C.ar    1  UNL1        0.0082
      8 C          50.1213   13.9273  -24.6184 C.ar    1  UNL1        0.0174
      9 C          49.3433   15.0765  -24.3892 C.ar    1  UNL1        0.0137
     10 C          49.1248   16.2973  -25.1011 C.ar    1  UNL1       -0.0148
     11 C          48.2141   17.2292  -24.5146 C.ar    1  UNL1        0.0307
     12 BR         47.7713   18.9303  -25.2985 Br      1  UNL1       -0.0493
     13 C          47.5711   16.9416  -23.2993 C.ar    1  UNL1        0.0079
     14 C          47.8002   15.7436  -22.6278 C.ar    1  UNL1        0.0177
     15 C          48.6888   14.8241  -23.1835 C.ar    1  UNL1        0.0597
     16 C          49.8014   16.6305  -26.4274 C.3     1  UNL1        0.0229
     17 C          48.7759   16.9710  -27.5257 C.3     1  UNL1        0.0047
     18 C          50.9476   17.6445  -26.2478 C.3     1  UNL1        0.0047
     19 C          48.4702   12.9588  -21.4680 C.3     1  UNL1        0.1429
     20 C          47.4285   11.8925  -21.8393 C.3     1  UNL1        0.2027
     21 F          47.4159   10.9110  -20.8630 F       1  UNL1       -0.2334
     22 C          46.0143   12.4784  -21.9793 C.3     1  UNL1        0.1259
     23 N          45.4466   12.1298  -23.2800 N.pl3   1  UNL1       -0.3157
     24 H          44.6088   11.5054  -23.3083 H       1  UNL1        0.1483
     25 C          46.0683   14.4939  -26.0487 C.ar    1  UNL1        0.2261
     26 C          46.9584   13.7671  -26.8598 C.ar    1  UNL1        0.0578
     27 C          47.3426   12.4814  -26.4740 C.ar    1  UNL1        0.0077
     28 C          46.8462   11.9290  -25.2926 C.ar    1  UNL1        0.0343
     29 C          45.9650   12.6765  -24.5029 C.ar    1  UNL1        0.1317
     30 N          45.6030   13.9281  -24.9034 N.ar    1  UNL1       -0.1969
     31 C          45.1534   16.1735  -27.6578 C.3     1  UNL1        0.2542
     32 O          45.6376   15.7866  -26.3763 O.3     1  UNL1       -0.4561
@<TRIPOS>BOND
     1    31    32    1
     2    32    25    1
     3    25    26   ar
     4    26    27   ar
     5    27    28   ar
     6    28    29   ar
     7    29    23    1
     8    23    22    1
     9    22    20    1
    10    20    21    1
    11    20    19    1
    12    19     1    1
    13     1     2   ar
    14     2     3   ar
    15     3     4   ar
    16     4     5   ar
    17     5     6    1
    18     5     7   ar
    19     7     8   ar
    20     8     9   ar
    21     9    10   ar
    22    10    16    1
    23    16    17    1
    24    16    18    1
    25    10    11   ar
    26    11    12    1
    27    11    13   ar
    28    13    14   ar
    29    14    15   ar
    30    29    30   ar
    31    30    25   ar
    32    15     1   ar
    33     8     2   ar
    34    15     9   ar
    35    23    24    1
@<TRIPOS>MOLECULE
*****
 32 35 0 0 0
SMALL
GASTEIGER

@<TRIPOS>ATOM
      1 N          47.2805   13.4753  -25.8761 N.ar    1  UNL1       -0.3243
      2 C          48.5326   12.9717  -25.8168 C.ar    1  UNL1        0.0600
      3 C          48.8914   11.6185  -25.8070 C.ar    1  UNL1        0.0177
      4 C          50.2509   11.2876  -25.7614 C.ar    1  UNL1        0.0082
      5 C          51.2263   12.2983  -25.7212 C.ar    1  UNL1        0.0347
      6 BR         53.0763   11.8270  -25.6656 Br      1  UNL1       -0.0490
      7 C          50.8512   13.6517  -25.7268 C.ar    1  UNL1        0.0082
      8 C          49.4846   13.9786  -25.7769 C.ar    1  UNL1        0.0174
      9 C          48.7795   15.1952  -25.8141 C.ar    1  UNL1        0.0137
     10 C          49.1591   16.5739  -25.8178 C.ar    1  UNL1       -0.0148
     11 C          48.1008   17.5318  -25.8824 C.ar    1  UNL1        0.0307
     12 BR         48.3808   19.4359  -25.9001 Br      1  UNL1       -0.0493
     13 C          46.7590   17.1209  -25.9426 C.ar    1  UNL1        0.0079
     14 C          46.4171   15.7711  -25.9400 C.ar    1  UNL1        0.0177
     15 C          47.4366   14.8225  -25.8733 C.ar    1  UNL1        0.0597
     16 C          50.6085   17.0476  -25.7641 C.3     1  UNL1        0.0229
     17 C          50.8952   18.1392  -26.8129 C.3     1  UNL1        0.0047
     18 C          51.0527   17.3726  -24.3249 C.3     1  UNL1        0.0047
     19 C          46.0329   12.7058  -26.0115 C.3     1  UNL1        0.1429
     20 C          45.1561   12.8494  -24.7583 C.3     1  UNL1        0.2027
     21 F          43.9596   12.1834  -24.9627 F       1  UNL1       -0.2334
     22 C          45.8352   12.2850  -23.5001 C.3     1  UNL1        0.1259
     23 N          46.4833   13.3576  -22.7483 N.pl3   1  UNL1       -0.3157
     24 H          45.8875   14.1163  -22.3458 H       1  UNL1        0.1483
     25 C          49.9209   12.1211  -22.2048 C.ar    1  UNL1        0.2261
     26 C          50.6348   13.3172  -22.0102 C.ar    1  UNL1        0.0578
     27 C          49.9553   14.5361  -22.0578 C.ar    1  UNL1        0.0077
     28 C          48.5811   14.5606  -22.2988 C.ar    1  UNL1        0.0343
     29 C          47.8968   13.3553  -22.4929 C.ar    1  UNL1        0.1317
     30 N          48.5828   12.1787  -22.4383 N.ar    1  UNL1       -0.1969
     31 C          49.8526    9.6257  -22.3282 C.3     1  UNL1        0.2542
     32 O          50.5374   10.8631  -22.1666 O.3     1  UNL1       -0.4561
@<TRIPOS>BOND
     1    31    32    1
     2    32    25    1
     3    25    26   ar
     4    26    27   ar
     5    27    28   ar
     6    28    29   ar
     7    29    23    1
     8    23    22    1
     9    22    20    1
    10    20    21    1
    11    20    19    1
    12    19     1    1
    13     1     2   ar
    14     2     3   ar
    15     3     4   ar
    16     4     5   ar
    17     5     6    1
    18     5     7   ar
    19     7     8   ar
    20     8     9   ar
    21     9    10   ar
    22    10    16    1
    23    16    17    1
    24    16    18    1
    25    10    11   ar
    26    11    12    1
    27    11    13   ar
    28    13    14   ar
    29    14    15   ar
    30    29    30   ar
    31    30    25   ar
    32    15     1   ar
    33     8     2   ar
    34    15     9   ar
    35    23    24    1
@<TRIPOS>MOLECULE
*****
 32 35 0 0 0
SMALL
GASTEIGER

@<TRIPOS>ATOM
      1 N          49.2158   10.1800  -22.6820 N.ar    1  UNL1       -0.3243
      2 C          49.9763   10.0383  -23.7893 C.ar    1  UNL1        0.0600
      3 C          51.1771    9.3263  -23.8951 C.ar    1  UNL1        0.0177
      4 C          51.8170    9.2757  -25.1392 C.ar    1  UNL1        0.0082
      5 C          51.2614    9.9325  -26.2503 C.ar    1  UNL1        0.0347
      6 BR         52.1460    9.8467  -27.9407 Br      1  UNL1       -0.0490
      7 C          50.0585   10.6470  -26.1280 C.ar    1  UNL1        0.0082
      8 C          49.4177   10.6912  -24.8772 C.ar    1  UNL1        0.0174
      9 C          48.2260   11.2815  -24.4187 C.ar    1  UNL1        0.0137
     10 C          47.1957   12.0634  -25.0285 C.ar    1  UNL1       -0.0148
     11 C          46.1109   12.4641  -24.1891 C.ar    1  UNL1        0.0307
     12 BR         44.6192   13.5167  -24.7981 Br      1  UNL1       -0.0493
     13 C          46.0734   12.0955  -22.8342 C.ar    1  UNL1        0.0079
     14 C          47.0891   11.3311  -22.2661 C.ar    1  UNL1        0.0177
     15 C          48.1575   10.9345  -23.0693 C.ar    1  UNL1        0.0597
     16 C          47.2060   12.4686  -26.4994 C.3     1  UNL1        0.0229
     17 C          46.1298   11.7200  -27.3089 C.3     1  UNL1        0.0047
     18 C          47.2260   13.9996  -26.6724 C.3     1  UNL1        0.0047
     19 C          49.4557    9.5579  -21.3696 C.3     1  UNL1        0.1429
     20 C          49.0219   10.4902  -20.2283 C.3     1  UNL1        0.2027
     21 F          48.5195    9.7291  -19.1865 F       1  UNL1       -0.2334
     22 C          50.1804   11.3540  -19.7046 C.3     1  UNL1        0.1259
     23 N          50.0524   12.7255  -20.1927 N.pl3   1  UNL1       -0.3157
     24 H          49.6808   13.4546  -19.5424 H       1  UNL1        0.1483
     25 C          52.1124   12.9434  -23.2505 C.ar    1  UNL1        0.2261
     26 C          51.3507   13.8096  -24.0554 C.ar    1  UNL1        0.0578
     27 C          50.1482   14.3213  -23.5639 C.ar    1  UNL1        0.0077
     28 C          49.7106   13.9711  -22.2859 C.ar    1  UNL1        0.0343
     29 C          50.4867   13.1040  -21.5084 C.ar    1  UNL1        0.1317
     30 N          51.6584   12.6208  -22.0102 N.ar    1  UNL1       -0.1969
     31 C          53.6694   12.1522  -25.0384 C.3     1  UNL1        0.2542
     32 O          53.3298   12.3963  -23.6778 O.3     1  UNL1       -0.4561
@<TRIPOS>BOND
     1    31    32    1
     2    32    25    1
     3    25    26   ar
     4    26    27   ar
     5    27    28   ar
     6    28    29   ar
     7    29    23    1
     8    23    22    1
     9    22    20    1
    10    20    21    1
    11    20    19    1
    12    19     1    1
    13     1     2   ar
    14     2     3   ar
    15     3     4   ar
    16     4     5   ar
    17     5     6    1
    18     5     7   ar
    19     7     8   ar
    20     8     9   ar
    21     9    10   ar
    22    10    16    1
    23    16    17    1
    24    16    18    1
    25    10    11   ar
    26    11    12    1
    27    11    13   ar
    28    13    14   ar
    29    14    15   ar
    30    29    30   ar
    31    30    25   ar
    32    15     1   ar
    33     8     2   ar
    34    15     9   ar
    35    23    24    1
@<TRIPOS>MOLECULE
*****
 32 35 0 0 0
SMALL
GASTEIGER

@<TRIPOS>ATOM
      1 N          47.6053   13.3225  -26.2340 N.ar    1  UNL1       -0.3243
      2 C          48.8276   12.8689  -25.8804 C.ar    1  UNL1        0.0600
      3 C          49.1921   11.5368  -25.6503 C.ar    1  UNL1        0.0177
      4 C          50.5205   11.2567  -25.3088 C.ar    1  UNL1        0.0082
      5 C          51.4589   12.2966  -25.1966 C.ar    1  UNL1        0.0347
      6 BR         53.2680   11.8938  -24.7358 Br      1  UNL1       -0.0490
      7 C          51.0775   13.6288  -25.4256 C.ar    1  UNL1        0.0082
      8 C          49.7430   13.9043  -25.7725 C.ar    1  UNL1        0.0174
      9 C          49.0455   15.0864  -26.0800 C.ar    1  UNL1        0.0137
     10 C          49.4039   16.4681  -26.1657 C.ar    1  UNL1       -0.0148
     11 C          48.3680   17.3789  -26.5386 C.ar    1  UNL1        0.0307
     12 BR         48.6258   19.2780  -26.7159 Br      1  UNL1       -0.0493
     13 C          47.0676   16.9210  -26.8077 C.ar    1  UNL1        0.0079
     14 C          46.7461   15.5691  -26.7190 C.ar    1  UNL1        0.0177
     15 C          47.7436   14.6665  -26.3527 C.ar    1  UNL1        0.0597
     16 C          50.8103   16.9912  -25.8895 C.3     1  UNL1        0.0229
     17 C          51.3039   17.9298  -27.0072 C.3     1  UNL1        0.0047
     18 C          50.9488   17.5334  -24.4538 C.3     1  UNL1        0.0047
     19 C          46.4158   12.5033  -26.5183 C.3     1  UNL1        0.1429
     20 C          45.4525   12.4936  -25.3217 C.3     1  UNL1        0.2027
     21 F          44.2856   11.8422  -25.6836 F       1  UNL1       -0.2334
     22 C          46.0541   11.7971  -24.0905 C.3     1  UNL1        0.1259
     23 N          46.0817   12.7127  -22.9518 N.pl3   1  UNL1       -0.3157
     24 H          45.3158   12.6517  -22.2430 H       1  UNL1        0.1483
     25 C          47.9832   15.8772  -22.8470 C.ar    1  UNL1        0.2261
     26 C          49.2324   15.4520  -22.3604 C.ar    1  UNL1        0.0578
     27 C          49.4319   14.1002  -22.0737 C.ar    1  UNL1        0.0077
     28 C          48.3968   13.1848  -22.2683 C.ar    1  UNL1        0.0343
     29 C          47.1627   13.6365  -22.7498 C.ar    1  UNL1        0.1317
     30 N          46.9947   14.9609  -23.0251 N.ar    1  UNL1       -0.1969
     31 C          46.4130   17.7930  -23.1807 C.3     1  UNL1        0.2542
     32 O          47.7144   17.2168  -23.1590 O.3     1  UNL1       -0.4561
@<TRIPOS>BOND
     1    31    32    1
     2    32    25    1
     3    25    26   ar
     4    26    27   ar
     5    27    28   ar
     6    28    29   ar
     7    29    23    1
     8    23    22    1
     9    22    20    1
    10    20    21    1
    11    20    19    1
    12    19     1    1
    13     1     2   ar
    14     2     3   ar
    15     3     4   ar
    16     4     5   ar
    17     5     6    1
    18     5     7   ar
    19     7     8   ar
    20     8     9   ar
    21     9    10   ar
    22    10    16    1
    23    16    17    1
    24    16    18    1
    25    10    11   ar
    26    11    12    1
    27    11    13   ar
    28    13    14   ar
    29    14    15   ar
    30    29    30   ar
    31    30    25   ar
    32    15     1   ar
    33     8     2   ar
    34    15     9   ar
    35    23    24    1
@<TRIPOS>MOLECULE
*****
 32 35 0 0 0
SMALL
GASTEIGER

@<TRIPOS>ATOM
      1 N          49.6438    9.9311  -24.2212 N.ar    1  UNL1       -0.3243
      2 C          49.2163   10.1531  -22.9592 C.ar    1  UNL1        0.0600
      3 C          49.6964    9.5449  -21.7931 C.ar    1  UNL1        0.0177
      4 C          49.1387    9.9200  -20.5651 C.ar    1  UNL1        0.0082
      5 C          48.1164   10.8829  -20.5144 C.ar    1  UNL1        0.0347
      6 BR         47.3726   11.3861  -18.8289 Br      1  UNL1       -0.0490
      7 C          47.6415   11.4811  -21.6930 C.ar    1  UNL1        0.0082
      8 C          48.2080   11.1038  -22.9234 C.ar    1  UNL1        0.0174
      9 C          47.9902   11.5039  -24.2542 C.ar    1  UNL1        0.0137
     10 C          47.1190   12.4439  -24.8884 C.ar    1  UNL1       -0.0148
     11 C          47.2275   12.5646  -26.3081 C.ar    1  UNL1        0.0307
     12 BR         46.1570   13.7653  -27.3647 Br      1  UNL1       -0.0493
     13 C          48.1532   11.7920  -27.0287 C.ar    1  UNL1        0.0079
     14 C          48.9918   10.8853  -26.3857 C.ar    1  UNL1        0.0177
     15 C          48.8969   10.7516  -25.0011 C.ar    1  UNL1        0.0597
     16 C          46.1125   13.3031  -24.1291 C.3     1  UNL1        0.0229
     17 C          46.4212   14.8063  -24.2665 C.3     1  UNL1        0.0047
     18 C          44.6598   12.8900  -24.4350 C.3     1  UNL1        0.0047
     19 C          50.7521    9.0518  -24.6282 C.3     1  UNL1        0.1429
     20 C          52.1090    9.6537  -24.2329 C.3     1  UNL1        0.2027
     21 F          53.1111    8.7435  -24.5231 F       1  UNL1       -0.2334
     22 C          52.4016   10.9722  -24.9669 C.3     1  UNL1        0.1259
     23 N          52.7495   12.0201  -24.0096 N.pl3   1  UNL1       -0.3157
     24 H          53.7602   12.2088  -23.8208 H       1  UNL1        0.1483
     25 C          50.6144   13.5144  -21.3924 C.ar    1  UNL1        0.2261
     26 C          49.8208   14.4063  -22.1361 C.ar    1  UNL1        0.0578
     27 C          50.0041   14.4981  -23.5172 C.ar    1  UNL1        0.0077
     28 C          50.9687   13.7111  -24.1476 C.ar    1  UNL1        0.0343
     29 C          51.7469   12.8351  -23.3823 C.ar    1  UNL1        0.1317
     30 N          51.5461   12.7619  -22.0360 N.ar    1  UNL1       -0.1969
     31 C          51.4233   12.6996  -19.1723 C.3     1  UNL1        0.2542
     32 O          50.4819   13.3679  -20.0050 O.3     1  UNL1       -0.4561
@<TRIPOS>BOND
     1    31    32    1
     2    32    25    1
     3    25    26   ar
     4    26    27   ar
     5    27    28   ar
     6    28    29   ar
     7    29    23    1
     8    23    22    1
     9    22    20    1
    10    20    21    1
    11    20    19    1
    12    19     1    1
    13     1     2   ar
    14     2     3   ar
    15     3     4   ar
    16     4     5   ar
    17     5     6    1
    18     5     7   ar
    19     7     8   ar
    20     8     9   ar
    21     9    10   ar
    22    10    16    1
    23    16    17    1
    24    16    18    1
    25    10    11   ar
    26    11    12    1
    27    11    13   ar
    28    13    14   ar
    29    14    15   ar
    30    29    30   ar
    31    30    25   ar
    32    15     1   ar
    33     8     2   ar
    34    15     9   ar
    35    23    24    1
@<TRIPOS>MOLECULE
*****
 32 35 0 0 0
SMALL
GASTEIGER

@<TRIPOS>ATOM
      1 N          47.3349   13.7135  -24.2510 N.ar    1  UNL1       -0.3243
      2 C          48.5074   13.2107  -24.6949 C.ar    1  UNL1        0.0600
      3 C          48.8759   11.8607  -24.7407 C.ar    1  UNL1        0.0177
      4 C          50.1347   11.5284  -25.2552 C.ar    1  UNL1        0.0082
      5 C          51.0044   12.5348  -25.7086 C.ar    1  UNL1        0.0347
      6 BR         52.7151   12.0611  -26.4131 Br      1  UNL1       -0.0490
      7 C          50.6229   13.8853  -25.6521 C.ar    1  UNL1        0.0082
      8 C          49.3558   14.2133  -25.1382 C.ar    1  UNL1        0.0174
      9 C          48.6666   15.4264  -24.9595 C.ar    1  UNL1        0.0137
     10 C          48.9678   16.7989  -25.2250 C.ar    1  UNL1       -0.0148
     11 C          47.9549   17.7535  -24.9016 C.ar    1  UNL1        0.0307
     12 BR         48.1447   19.6491  -25.1754 Br      1  UNL1       -0.0493
     13 C          46.7277   17.3451  -24.3537 C.ar    1  UNL1        0.0079
     14 C          46.4593   16.0012  -24.1074 C.ar    1  UNL1        0.0177
     15 C          47.4377   15.0561  -24.4131 C.ar    1  UNL1        0.0597
     16 C          50.2877   17.2689  -25.8291 C.3     1  UNL1        0.0229
     17 C          50.0685   18.2699  -26.9796 C.3     1  UNL1        0.0047
     18 C          51.2905   17.7082  -24.7449 C.3     1  UNL1        0.0047
     19 C          46.1714   12.9414  -23.7851 C.3     1  UNL1        0.1429
     20 C          45.1060   12.8287  -24.8860 C.3     1  UNL1        0.2027
     21 F          44.8502   14.0883  -25.4008 F       1  UNL1       -0.2334
     22 C          45.5411   11.8987  -26.0298 C.3     1  UNL1        0.1259
     23 N          46.3222   12.6398  -27.0179 N.pl3   1  UNL1       -0.3157
     24 H          46.9576   13.3999  -26.6844 H       1  UNL1        0.1483
     25 C          46.6053   10.6781  -30.1344 C.ar    1  UNL1        0.2261
     26 C          46.2285   11.6202  -31.1084 C.ar    1  UNL1        0.0578
     27 C          45.8849   12.9144  -30.7130 C.ar    1  UNL1        0.0077
     28 C          45.9151   13.2632  -29.3621 C.ar    1  UNL1        0.0343
     29 C          46.2900   12.3043  -28.4141 C.ar    1  UNL1        0.1317
     30 N          46.6239   11.0487  -28.8265 N.ar    1  UNL1       -0.1969
     31 C          48.1959    8.7507  -30.0888 C.3     1  UNL1        0.2542
     32 O          46.9659    9.3636  -30.4599 O.3     1  UNL1       -0.4561
@<TRIPOS>BOND
     1    31    32    1
     2    32    25    1
     3    25    26   ar
     4    26    27   ar
     5    27    28   ar
     6    28    29   ar
     7    29    23    1
     8    23    22    1
     9    22    20    1
    10    20    21    1
    11    20    19    1
    12    19     1    1
    13     1     2   ar
    14     2     3   ar
    15     3     4   ar
    16     4     5   ar
    17     5     6    1
    18     5     7   ar
    19     7     8   ar
    20     8     9   ar
    21     9    10   ar
    22    10    16    1
    23    16    17    1
    24    16    18    1
    25    10    11   ar
    26    11    12    1
    27    11    13   ar
    28    13    14   ar
    29    14    15   ar
    30    29    30   ar
    31    30    25   ar
    32    15     1   ar
    33     8     2   ar
    34    15     9   ar
    35    23    24    1
@<TRIPOS>MOLECULE
*****
 32 35 0 0 0
SMALL
GASTEIGER

@<TRIPOS>ATOM
      1 N          49.5875    9.9562  -24.3200 N.ar    1  UNL1       -0.3243
      2 C          49.1595   10.1988  -23.0620 C.ar    1  UNL1        0.0600
      3 C          49.6466    9.6176  -21.8850 C.ar    1  UNL1        0.0177
      4 C          49.0870   10.0114  -20.6637 C.ar    1  UNL1        0.0082
      5 C          48.0561   10.9658  -20.6303 C.ar    1  UNL1        0.0347
      6 BR         47.3098   11.4948  -18.9537 Br      1  UNL1       -0.0490
      7 C          47.5743   11.5367  -21.8195 C.ar    1  UNL1        0.0082
      8 C          48.1426   11.1407  -23.0432 C.ar    1  UNL1        0.0174
      9 C          47.9196   11.5130  -24.3812 C.ar    1  UNL1        0.0137
     10 C          47.0390   12.4326  -25.0322 C.ar    1  UNL1       -0.0148
     11 C          47.1447   12.5266  -26.4541 C.ar    1  UNL1        0.0307
     12 BR         46.0620   13.6968  -27.5324 Br      1  UNL1       -0.0493
     13 C          48.0765   11.7487  -27.1610 C.ar    1  UNL1        0.0079
     14 C          48.9241   10.8623  -26.5017 C.ar    1  UNL1        0.0177
     15 C          48.8322   10.7545  -25.1146 C.ar    1  UNL1        0.0597
     16 C          46.0257   13.2971  -24.2883 C.3     1  UNL1        0.0229
     17 C          46.2814   14.8004  -24.5089 C.3     1  UNL1        0.0047
     18 C          44.5796   12.8239  -24.5320 C.3     1  UNL1        0.0047
     19 C          50.7032    9.0793  -24.7115 C.3     1  UNL1        0.1429
     20 C          52.0536    9.7890  -24.5310 C.3     1  UNL1        0.2027
     21 F          53.0478    8.8388  -24.3706 F       1  UNL1       -0.2334
     22 C          52.4077   10.6881  -25.7263 C.3     1  UNL1        0.1259
     23 N          52.7440   12.0341  -25.2675 N.pl3   1  UNL1       -0.3157
     24 H          53.7359   12.3549  -25.3443 H       1  UNL1        0.1483
     25 C          50.0192   14.5275  -25.2564 C.ar    1  UNL1        0.2261
     26 C          49.7847   14.6985  -23.8802 C.ar    1  UNL1        0.0578
     27 C          50.5481   13.9772  -22.9603 C.ar    1  UNL1        0.0077
     28 C          51.5318   13.0948  -23.4085 C.ar    1  UNL1        0.0343
     29 C          51.7409   12.9413  -24.7839 C.ar    1  UNL1        0.1317
     30 N          50.9843   13.6596  -25.6612 N.ar    1  UNL1       -0.1969
     31 C          49.6695   16.4855  -26.7700 C.3     1  UNL1        0.2542
     32 O          49.2939   15.2212  -26.2345 O.3     1  UNL1       -0.4561
@<TRIPOS>BOND
     1    31    32    1
     2    32    25    1
     3    25    26   ar
     4    26    27   ar
     5    27    28   ar
     6    28    29   ar
     7    29    23    1
     8    23    22    1
     9    22    20    1
    10    20    21    1
    11    20    19    1
    12    19     1    1
    13     1     2   ar
    14     2     3   ar
    15     3     4   ar
    16     4     5   ar
    17     5     6    1
    18     5     7   ar
    19     7     8   ar
    20     8     9   ar
    21     9    10   ar
    22    10    16    1
    23    16    17    1
    24    16    18    1
    25    10    11   ar
    26    11    12    1
    27    11    13   ar
    28    13    14   ar
    29    14    15   ar
    30    29    30   ar
    31    30    25   ar
    32    15     1   ar
    33     8     2   ar
    34    15     9   ar
    35    23    24    1
