@<TRIPOS>MOLECULE
*****
 50 55 0 0 0
SMALL
GASTEIGER

@<TRIPOS>ATOM
      1 O          14.1445   83.2707   25.8869 O.2     1  UNL1       -0.2701
      2 C          13.4375   82.7792   24.9647 C.2     1  UNL1        0.2483
      3 N          13.5298   83.3128   23.6346 N.am    1  UNL1       -0.2945
      4 H          13.1721   82.7384   22.8379 H       1  UNL1        0.1501
      5 C          12.5475   81.6349   25.2644 C.ar    1  UNL1        0.0808
      6 C          11.2392   81.8732   25.7153 C.ar    1  UNL1        0.0080
      7 C          10.3827   80.8093   26.0080 C.ar    1  UNL1        0.0148
      8 C          10.8120   79.4803   25.8481 C.ar    1  UNL1        0.0502
      9 C          12.1145   79.2426   25.3759 C.ar    1  UNL1        0.0443
     10 C          12.9748   80.3057   25.0841 C.ar    1  UNL1        0.1457
     11 F          14.2046   80.0285   24.5824 F       1  UNL1       -0.2040
     12 N           9.9253   78.3784   26.1454 N.pl3   1  UNL1       -0.3040
     13 C           8.8016   78.0694   25.2497 C.3     1  UNL1        0.1123
     14 C           7.6219   77.4894   26.0377 C.3     1  UNL1        0.1136
     15 N           8.0418   76.3944   26.9285 N.pl3   1  UNL1       -0.2897
     16 C           9.4729   76.1595   27.1685 C.3     1  UNL1        0.1136
     17 C          10.2252   77.4891   27.2786 C.3     1  UNL1        0.1123
     18 C           7.0668   75.4658   27.4550 C.ar    1  UNL1        0.1318
     19 C           6.6917   74.3146   26.7404 C.ar    1  UNL1        0.0343
     20 C           5.7475   73.4414   27.2828 C.ar    1  UNL1        0.0083
     21 C           5.1868   73.6991   28.5422 C.ar    1  UNL1        0.0906
     22 C           5.5636   74.8733   29.2109 C.ar    1  UNL1        0.1041
     23 N           6.4838   75.7096   28.6624 N.ar    1  UNL1       -0.2292
     24 C           4.1292   72.7907   29.1154 C.3     1  UNL1        0.4200
     25 F           4.1356   72.8976   30.4936 F       1  UNL1       -0.1658
     26 F           2.8766   73.1405   28.6415 F       1  UNL1       -0.1658
     27 F           4.3734   71.4744   28.7637 F       1  UNL1       -0.1658
     28 C          14.2913   84.5304   23.3381 C.3     1  UNL1        0.1535
     29 C          14.5053   84.6515   21.8545 C.2     1  UNL1        0.2443
     30 O          15.4516   84.0209   21.3081 O.2     1  UNL1       -0.2730
     31 N          13.5816   85.4103   21.0586 N.am    1  UNL1       -0.2825
     32 H          12.6477   85.6305   21.4737 H       1  UNL1        0.1549
     33 C          13.8249   85.7992   19.6961 C.ar    1  UNL1        0.0543
     34 C          13.7528   87.1534   19.3427 C.ar    1  UNL1        0.0354
     35 C          14.0105   87.5390   18.0253 C.ar    1  UNL1        0.1011
     36 N          14.3456   86.6066   17.0951 N.ar    1  UNL1       -0.2323
     37 C          14.4433   85.2881   17.4106 C.ar    1  UNL1        0.1396
     38 CL         14.8985   84.1321   16.1753 Cl      1  UNL1       -0.0613
     39 C          14.1924   84.8595   18.7177 C.ar    1  UNL1        0.0455
     40 C          13.5597   85.7751   23.8668 C.3     1  UNL1        0.0569
     41 C          14.5297   86.7858   24.4061 C.ar    1  UNL1       -0.0017
     42 C          15.2968   87.6786   23.6634 C.ar    1  UNL1        0.0681
     43 N          15.9957   88.4960   24.4836 N.ar    1  UNL1       -0.3523
     44 C          15.6693   88.1330   25.7363 C.ar    1  UNL1        0.0563
     45 C          16.1230   88.7008   26.9262 C.ar    1  UNL1        0.0170
     46 C          15.6324   88.1737   28.1350 C.ar    1  UNL1        0.0015
     47 C          14.7078   87.1055   28.1275 C.ar    1  UNL1        0.0001
     48 C          14.2660   86.5536   26.9112 C.ar    1  UNL1        0.0012
     49 C          14.7735   87.0946   25.7297 C.ar    1  UNL1        0.0131
     50 H          16.6440   89.2629   24.1972 H       1  UNL1        0.1660
@<TRIPOS>BOND
     1     1     2    2
     2     2     3   am
     3     3    28    1
     4    28    40    1
     5    40    41    1
     6    41    42   ar
     7    42    43   ar
     8    43    44   ar
     9    44    45   ar
    10    45    46   ar
    11    46    47   ar
    12    47    48   ar
    13    48    49   ar
    14    28    29    1
    15    29    30    2
    16    29    31   am
    17    31    33    1
    18    33    34   ar
    19    34    35   ar
    20    35    36   ar
    21    36    37   ar
    22    37    38    1
    23    37    39   ar
    24     2     5    1
    25     5     6   ar
    26     6     7   ar
    27     7     8   ar
    28     8    12    1
    29    12    13    1
    30    13    14    1
    31    14    15    1
    32    15    18    1
    33    18    19   ar
    34    19    20   ar
    35    20    21   ar
    36    21    24    1
    37    24    25    1
    38    24    26    1
    39    24    27    1
    40    21    22   ar
    41    22    23   ar
    42    15    16    1
    43    16    17    1
    44     8     9   ar
    45     9    10   ar
    46    10    11    1
    47    49    41   ar
    48    39    33   ar
    49    10     5   ar
    50    49    44   ar
    51    17    12    1
    52    23    18   ar
    53     3     4    1
    54    43    50    1
    55    31    32    1
@<TRIPOS>MOLECULE
*****
 50 55 0 0 0
SMALL
GASTEIGER

@<TRIPOS>ATOM
      1 O          14.7585   81.8031   24.7651 O.2     1  UNL1       -0.2701
      2 C          13.5571   82.1370   24.5720 C.2     1  UNL1        0.2483
      3 N          13.2591   83.3896   23.9362 N.am    1  UNL1       -0.2945
      4 H          12.3067   83.5314   23.5291 H       1  UNL1        0.1501
      5 C          12.4735   81.2126   24.9751 C.ar    1  UNL1        0.0808
      6 C          11.2550   81.7329   25.4401 C.ar    1  UNL1        0.0080
      7 C          10.2197   80.8800   25.8298 C.ar    1  UNL1        0.0148
      8 C          10.3754   79.4850   25.7551 C.ar    1  UNL1        0.0502
      9 C          11.5876   78.9650   25.2690 C.ar    1  UNL1        0.0443
     10 C          12.6266   79.8163   24.8802 C.ar    1  UNL1        0.1457
     11 F          13.7586   79.2700   24.3694 F       1  UNL1       -0.2040
     12 N           9.3032   78.6011   26.1527 N.pl3   1  UNL1       -0.3040
     13 C           8.3557   79.0101   27.1992 C.3     1  UNL1        0.1123
     14 C           7.8614   77.7942   27.9905 C.3     1  UNL1        0.1136
     15 N           7.3984   76.7133   27.1038 N.pl3   1  UNL1       -0.2897
     16 C           7.6840   76.7808   25.6634 C.3     1  UNL1        0.1136
     17 C           9.0873   77.3441   25.4192 C.3     1  UNL1        0.1123
     18 C           6.5482   75.6619   27.6153 C.ar    1  UNL1        0.1318
     19 C           6.7216   74.3233   27.2219 C.ar    1  UNL1        0.0343
     20 C           5.8809   73.3364   27.7390 C.ar    1  UNL1        0.0083
     21 C           4.8782   73.6725   28.6601 C.ar    1  UNL1        0.0906
     22 C           4.7167   75.0227   29.0049 C.ar    1  UNL1        0.1041
     23 N           5.5462   75.9666   28.4875 N.ar    1  UNL1       -0.2292
     24 C           3.9320   72.6237   29.1862 C.3     1  UNL1        0.4200
     25 F           4.2835   71.3918   28.6668 F       1  UNL1       -0.1658
     26 F           3.9893   72.5638   30.5679 F       1  UNL1       -0.1658
     27 F           2.6292   72.9131   28.8188 F       1  UNL1       -0.1658
     28 C          14.2993   84.3845   23.6557 C.3     1  UNL1        0.1535
     29 C          14.7410   84.2729   22.2226 C.2     1  UNL1        0.2443
     30 O          15.8573   83.7502   21.9537 O.2     1  UNL1       -0.2730
     31 N          13.8552   84.6794   21.1679 N.am    1  UNL1       -0.2825
     32 H          12.8408   84.7853   21.3974 H       1  UNL1        0.1549
     33 C          14.2606   84.8537   19.7996 C.ar    1  UNL1        0.0543
     34 C          14.9749   83.8333   19.1573 C.ar    1  UNL1        0.0354
     35 C          15.3515   83.9881   17.8212 C.ar    1  UNL1        0.1011
     36 N          15.0120   85.1161   17.1435 N.ar    1  UNL1       -0.2323
     37 C          14.3026   86.1150   17.7321 C.ar    1  UNL1        0.1396
     38 CL         13.8755   87.5386   16.8044 Cl      1  UNL1       -0.0613
     39 C          13.9069   86.0006   19.0683 C.ar    1  UNL1        0.0455
     40 C          13.7865   85.8062   23.9384 C.3     1  UNL1        0.0569
     41 C          14.4969   86.8180   23.0872 C.ar    1  UNL1       -0.0017
     42 C          15.8715   87.0239   23.0156 C.ar    1  UNL1        0.0681
     43 N          16.1603   87.9610   22.0840 N.ar    1  UNL1       -0.3523
     44 C          14.9814   88.3410   21.5610 C.ar    1  UNL1        0.0563
     45 C          14.7678   89.2750   20.5483 C.ar    1  UNL1        0.0170
     46 C          13.4423   89.5069   20.1367 C.ar    1  UNL1        0.0015
     47 C          12.3730   88.8058   20.7376 C.ar    1  UNL1        0.0001
     48 C          12.6189   87.8672   21.7562 C.ar    1  UNL1        0.0012
     49 C          13.9428   87.6624   22.1454 C.ar    1  UNL1        0.0131
     50 H          17.1095   88.3049   21.8170 H       1  UNL1        0.1660
@<TRIPOS>BOND
     1     1     2    2
     2     2     3   am
     3     3    28    1
     4    28    40    1
     5    40    41    1
     6    41    42   ar
     7    42    43   ar
     8    43    44   ar
     9    44    45   ar
    10    45    46   ar
    11    46    47   ar
    12    47    48   ar
    13    48    49   ar
    14    28    29    1
    15    29    30    2
    16    29    31   am
    17    31    33    1
    18    33    34   ar
    19    34    35   ar
    20    35    36   ar
    21    36    37   ar
    22    37    38    1
    23    37    39   ar
    24     2     5    1
    25     5     6   ar
    26     6     7   ar
    27     7     8   ar
    28     8    12    1
    29    12    13    1
    30    13    14    1
    31    14    15    1
    32    15    18    1
    33    18    19   ar
    34    19    20   ar
    35    20    21   ar
    36    21    24    1
    37    24    25    1
    38    24    26    1
    39    24    27    1
    40    21    22   ar
    41    22    23   ar
    42    15    16    1
    43    16    17    1
    44     8     9   ar
    45     9    10   ar
    46    10    11    1
    47    49    41   ar
    48    39    33   ar
    49    10     5   ar
    50    49    44   ar
    51    17    12    1
    52    23    18   ar
    53     3     4    1
    54    43    50    1
    55    31    32    1
@<TRIPOS>MOLECULE
*****
 50 55 0 0 0
SMALL
GASTEIGER

@<TRIPOS>ATOM
      1 O          10.3908   74.6455   25.8350 O.2     1  UNL1       -0.2701
      2 C           9.7276   75.6443   25.4419 C.2     1  UNL1        0.2483
      3 N           8.3314   75.4984   25.1392 N.am    1  UNL1       -0.2945
      4 H           7.7360   76.3562   25.0927 H       1  UNL1        0.1501
      5 C          10.3954   76.9608   25.3320 C.ar    1  UNL1        0.0808
      6 C           9.9110   78.0486   26.0762 C.ar    1  UNL1        0.0080
      7 C          10.5226   79.3012   25.9857 C.ar    1  UNL1        0.0148
      8 C          11.6398   79.4936   25.1546 C.ar    1  UNL1        0.0502
      9 C          12.1375   78.3990   24.4265 C.ar    1  UNL1        0.0443
     10 C          11.5261   77.1444   24.5135 C.ar    1  UNL1        0.1457
     11 F          12.0724   76.1058   23.8325 F       1  UNL1       -0.2040
     12 N          12.2771   80.7877   25.0639 N.pl3   1  UNL1       -0.3040
     13 C          11.4709   82.0156   25.1157 C.3     1  UNL1        0.1123
     14 C          12.1131   83.1235   24.2736 C.3     1  UNL1        0.1136
     15 N          13.5430   83.2906   24.5845 N.pl3   1  UNL1       -0.2897
     16 C          14.2323   82.2832   25.4035 C.3     1  UNL1        0.1136
     17 C          13.7457   80.8754   25.0466 C.3     1  UNL1        0.1123
     18 C          14.2356   84.5030   24.2099 C.ar    1  UNL1        0.1318
     19 C          14.8415   84.6404   22.9487 C.ar    1  UNL1        0.0343
     20 C          15.5002   85.8273   22.6239 C.ar    1  UNL1        0.0083
     21 C          15.5443   86.8862   23.5424 C.ar    1  UNL1        0.0906
     22 C          14.9546   86.7001   24.8015 C.ar    1  UNL1        0.1041
     23 N          14.3199   85.5350   25.0961 N.ar    1  UNL1       -0.2292
     24 C          16.2960   88.1531   23.2225 C.3     1  UNL1        0.4200
     25 F          15.6499   89.2258   23.8080 F       1  UNL1       -0.1658
     26 F          17.5911   88.0873   23.7065 F       1  UNL1       -0.1658
     27 F          16.3545   88.3537   21.8542 F       1  UNL1       -0.1658
     28 C           7.6785   74.1859   25.1019 C.3     1  UNL1        0.1535
     29 C           6.4394   74.2063   25.9537 C.2     1  UNL1        0.2443
     30 O           5.4185   74.8303   25.5533 O.2     1  UNL1       -0.2730
     31 N           6.3959   73.4453   27.1707 N.am    1  UNL1       -0.2825
     32 H           7.1085   72.6912   27.2993 H       1  UNL1        0.1549
     33 C           5.3769   73.5910   28.1743 C.ar    1  UNL1        0.0543
     34 C           4.5743   72.4912   28.5062 C.ar    1  UNL1        0.0354
     35 C           3.5980   72.6212   29.4966 C.ar    1  UNL1        0.1011
     36 N           3.4391   73.8042   30.1461 N.ar    1  UNL1       -0.2323
     37 C           4.2148   74.8835   29.8613 C.ar    1  UNL1        0.1396
     38 CL          3.9791   76.3783   30.7444 Cl      1  UNL1       -0.0613
     39 C           5.2030   74.7963   28.8759 C.ar    1  UNL1        0.0455
     40 C           7.3180   73.7954   23.6591 C.3     1  UNL1        0.0569
     41 C           8.4169   74.1667   22.7063 C.ar    1  UNL1       -0.0017
     42 C           8.4598   75.2904   21.8862 C.ar    1  UNL1        0.0681
     43 N           9.6370   75.3454   21.2225 N.ar    1  UNL1       -0.3523
     44 C          10.3404   74.2721   21.6236 C.ar    1  UNL1        0.0563
     45 C          11.6275   73.9093   21.2291 C.ar    1  UNL1        0.0170
     46 C          12.1852   72.7475   21.7939 C.ar    1  UNL1        0.0015
     47 C          11.4538   71.9852   22.7319 C.ar    1  UNL1        0.0001
     48 C          10.1573   72.3767   23.1129 C.ar    1  UNL1        0.0012
     49 C           9.6300   73.5304   22.5324 C.ar    1  UNL1        0.0131
     50 H           9.9403   76.0829   20.5483 H       1  UNL1        0.1660
@<TRIPOS>BOND
     1     1     2    2
     2     2     3   am
     3     3    28    1
     4    28    40    1
     5    40    41    1
     6    41    42   ar
     7    42    43   ar
     8    43    44   ar
     9    44    45   ar
    10    45    46   ar
    11    46    47   ar
    12    47    48   ar
    13    48    49   ar
    14    28    29    1
    15    29    30    2
    16    29    31   am
    17    31    33    1
    18    33    34   ar
    19    34    35   ar
    20    35    36   ar
    21    36    37   ar
    22    37    38    1
    23    37    39   ar
    24     2     5    1
    25     5     6   ar
    26     6     7   ar
    27     7     8   ar
    28     8    12    1
    29    12    13    1
    30    13    14    1
    31    14    15    1
    32    15    18    1
    33    18    19   ar
    34    19    20   ar
    35    20    21   ar
    36    21    24    1
    37    24    25    1
    38    24    26    1
    39    24    27    1
    40    21    22   ar
    41    22    23   ar
    42    15    16    1
    43    16    17    1
    44     8     9   ar
    45     9    10   ar
    46    10    11    1
    47    49    41   ar
    48    39    33   ar
    49    10     5   ar
    50    49    44   ar
    51    17    12    1
    52    23    18   ar
    53     3     4    1
    54    43    50    1
    55    31    32    1
@<TRIPOS>MOLECULE
*****
 50 55 0 0 0
SMALL
GASTEIGER

@<TRIPOS>ATOM
      1 O          14.6101   82.0679   24.5070 O.2     1  UNL1       -0.2701
      2 C          13.4002   82.4199   24.4412 C.2     1  UNL1        0.2483
      3 N          13.0601   83.7026   23.8924 N.am    1  UNL1       -0.2945
      4 H          12.0761   83.8704   23.5821 H       1  UNL1        0.1501
      5 C          12.3472   81.4867   24.9012 C.ar    1  UNL1        0.0808
      6 C          11.1019   81.9921   25.3080 C.ar    1  UNL1        0.0080
      7 C          10.0945   81.1310   25.7495 C.ar    1  UNL1        0.0148
      8 C          10.3059   79.7418   25.7864 C.ar    1  UNL1        0.0502
      9 C          11.5452   79.2348   25.3585 C.ar    1  UNL1        0.0443
     10 C          12.5563   80.0946   24.9180 C.ar    1  UNL1        0.1457
     11 F          13.7170   79.5563   24.4664 F       1  UNL1       -0.2040
     12 N           9.2628   78.8491   26.2379 N.pl3   1  UNL1       -0.3040
     13 C           8.6361   79.0471   27.5526 C.3     1  UNL1        0.1123
     14 C           8.2053   77.7062   28.1570 C.3     1  UNL1        0.1136
     15 N           7.4307   76.8965   27.2012 N.pl3   1  UNL1       -0.2897
     16 C           7.3801   77.2915   25.7862 C.3     1  UNL1        0.1136
     17 C           8.7426   77.8184   25.3258 C.3     1  UNL1        0.1123
     18 C           6.6097   75.8018   27.6676 C.ar    1  UNL1        0.1318
     19 C           6.8363   74.4822   27.2390 C.ar    1  UNL1        0.0343
     20 C           6.0225   73.4521   27.7129 C.ar    1  UNL1        0.0083
     21 C           4.9937   73.7261   28.6257 C.ar    1  UNL1        0.0906
     22 C           4.7793   75.0592   29.0063 C.ar    1  UNL1        0.1041
     23 N           5.5836   76.0460   28.5307 N.ar    1  UNL1       -0.2292
     24 C           4.0764   72.6302   29.1050 C.3     1  UNL1        0.4200
     25 F           4.0840   72.6022   30.4871 F       1  UNL1       -0.1658
     26 F           2.7825   72.8499   28.6652 F       1  UNL1       -0.1658
     27 F           4.4936   71.4002   28.6265 F       1  UNL1       -0.1658
     28 C          14.0820   84.7008   23.5615 C.3     1  UNL1        0.1535
     29 C          14.4071   84.6337   22.0949 C.2     1  UNL1        0.2443
     30 O          15.4225   83.9908   21.7107 O.2     1  UNL1       -0.2730
     31 N          13.5149   85.2244   21.1371 N.am    1  UNL1       -0.2825
     32 H          12.5417   85.4444   21.4492 H       1  UNL1        0.1549
     33 C          13.8469   85.4401   19.7551 C.ar    1  UNL1        0.0543
     34 C          14.0853   86.7435   19.2990 C.ar    1  UNL1        0.0354
     35 C          14.4305   86.9563   17.9624 C.ar    1  UNL1        0.1011
     36 N          14.5504   85.9022   17.1131 N.ar    1  UNL1       -0.2323
     37 C          14.3452   84.6246   17.5293 C.ar    1  UNL1        0.1396
     38 CL         14.5329   83.3023   16.3954 Cl      1  UNL1       -0.0613
     39 C          13.9970   84.3678   18.8590 C.ar    1  UNL1        0.0455
     40 C          13.6041   86.1152   23.9297 C.3     1  UNL1        0.0569
     41 C          14.6250   86.8323   24.7643 C.ar    1  UNL1       -0.0017
     42 C          14.5793   87.0324   26.1408 C.ar    1  UNL1        0.0681
     43 N          15.7073   87.6459   26.5661 N.ar    1  UNL1       -0.3523
     44 C          16.4676   87.8258   25.4720 C.ar    1  UNL1        0.0563
     45 C          17.7356   88.4022   25.4093 C.ar    1  UNL1        0.0170
     46 C          18.3644   88.4724   24.1525 C.ar    1  UNL1        0.0015
     47 C          17.7205   87.9679   23.0006 C.ar    1  UNL1        0.0001
     48 C          16.4415   87.3896   23.0944 C.ar    1  UNL1        0.0012
     49 C          15.8422   87.3384   24.3531 C.ar    1  UNL1        0.0131
     50 H          15.9425   87.9098   27.5487 H       1  UNL1        0.1660
@<TRIPOS>BOND
     1     1     2    2
     2     2     3   am
     3     3    28    1
     4    28    40    1
     5    40    41    1
     6    41    42   ar
     7    42    43   ar
     8    43    44   ar
     9    44    45   ar
    10    45    46   ar
    11    46    47   ar
    12    47    48   ar
    13    48    49   ar
    14    28    29    1
    15    29    30    2
    16    29    31   am
    17    31    33    1
    18    33    34   ar
    19    34    35   ar
    20    35    36   ar
    21    36    37   ar
    22    37    38    1
    23    37    39   ar
    24     2     5    1
    25     5     6   ar
    26     6     7   ar
    27     7     8   ar
    28     8    12    1
    29    12    13    1
    30    13    14    1
    31    14    15    1
    32    15    18    1
    33    18    19   ar
    34    19    20   ar
    35    20    21   ar
    36    21    24    1
    37    24    25    1
    38    24    26    1
    39    24    27    1
    40    21    22   ar
    41    22    23   ar
    42    15    16    1
    43    16    17    1
    44     8     9   ar
    45     9    10   ar
    46    10    11    1
    47    49    41   ar
    48    39    33   ar
    49    10     5   ar
    50    49    44   ar
    51    17    12    1
    52    23    18   ar
    53     3     4    1
    54    43    50    1
    55    31    32    1
@<TRIPOS>MOLECULE
*****
 50 55 0 0 0
SMALL
GASTEIGER

@<TRIPOS>ATOM
      1 O           8.6448   74.6207   25.0193 O.2     1  UNL1       -0.2701
      2 C           8.2363   75.7139   25.4989 C.2     1  UNL1        0.2483
      3 N           6.9569   75.7735   26.1483 N.am    1  UNL1       -0.2945
      4 H           6.7512   76.5821   26.7780 H       1  UNL1        0.1501
      5 C           9.1015   76.9120   25.4133 C.ar    1  UNL1        0.0808
      6 C           8.8181   77.9058   24.4625 C.ar    1  UNL1        0.0080
      7 C           9.6228   79.0430   24.3607 C.ar    1  UNL1        0.0148
      8 C          10.7260   79.2178   25.2141 C.ar    1  UNL1        0.0502
      9 C          10.9963   78.2330   26.1801 C.ar    1  UNL1        0.0443
     10 C          10.1938   77.0924   26.2830 C.ar    1  UNL1        0.1457
     11 F          10.4625   76.1942   27.2638 F       1  UNL1       -0.2040
     12 N          11.5563   80.3964   25.1136 N.pl3   1  UNL1       -0.3040
     13 C          11.0444   81.7028   25.5515 C.3     1  UNL1        0.1123
     14 C          11.6497   82.8332   24.7120 C.3     1  UNL1        0.1136
     15 N          13.1156   82.7252   24.6212 N.pl3   1  UNL1       -0.2897
     16 C          13.7843   81.4962   25.0721 C.3     1  UNL1        0.1136
     17 C          12.9591   80.2637   24.6898 C.3     1  UNL1        0.1123
     18 C          13.9095   83.8666   24.2248 C.ar    1  UNL1        0.1318
     19 C          13.9786   85.0228   25.0216 C.ar    1  UNL1        0.0343
     20 C          14.7570   86.1038   24.6050 C.ar    1  UNL1        0.0083
     21 C          15.4818   86.0336   23.4065 C.ar    1  UNL1        0.0906
     22 C          15.3635   84.8753   22.6240 C.ar    1  UNL1        0.1041
     23 N          14.5982   83.8357   23.0491 N.ar    1  UNL1       -0.2292
     24 C          16.2850   87.2133   22.9213 C.3     1  UNL1        0.4200
     25 F          16.4770   87.1030   21.5568 F       1  UNL1       -0.1658
     26 F          15.6220   88.3984   23.1894 F       1  UNL1       -0.1658
     27 F          17.5183   87.2554   23.5485 F       1  UNL1       -0.1658
     28 C           6.0210   74.6448   26.1240 C.3     1  UNL1        0.1535
     29 C           5.9412   74.0759   24.7343 C.2     1  UNL1        0.2443
     30 O           6.2443   72.8671   24.5376 O.2     1  UNL1       -0.2730
     31 N           5.4379   74.8838   23.6590 N.am    1  UNL1       -0.2825
     32 H           4.8922   75.7402   23.9074 H       1  UNL1        0.1549
     33 C           5.5542   74.5357   22.2690 C.ar    1  UNL1        0.0543
     34 C           6.6638   73.7984   21.8338 C.ar    1  UNL1        0.0354
     35 C           6.7703   73.4381   20.4886 C.ar    1  UNL1        0.1011
     36 N           5.7940   73.7870   19.6099 N.ar    1  UNL1       -0.2323
     37 C           4.6962   74.4846   20.0044 C.ar    1  UNL1        0.1396
     38 CL          3.4589   74.8904   18.8321 Cl      1  UNL1       -0.0613
     39 C           4.5510   74.8660   21.3418 C.ar    1  UNL1        0.0455
     40 C           6.4562   73.5524   27.1148 C.3     1  UNL1        0.0569
     41 C           6.7826   74.1376   28.4580 C.ar    1  UNL1       -0.0017
     42 C           8.0239   74.1296   29.0873 C.ar    1  UNL1        0.0681
     43 N           7.9682   74.8195   30.2494 N.ar    1  UNL1       -0.3523
     44 C           6.7058   75.2703   30.3538 C.ar    1  UNL1        0.0563
     45 C           6.1691   76.0514   31.3764 C.ar    1  UNL1        0.0170
     46 C           4.8179   76.4304   31.2741 C.ar    1  UNL1        0.0015
     47 C           4.0434   76.0274   30.1633 C.ar    1  UNL1        0.0001
     48 C           4.6124   75.2408   29.1452 C.ar    1  UNL1        0.0012
     49 C           5.9529   74.8776   29.2770 C.ar    1  UNL1        0.0131
     50 H           8.7534   74.9805   30.9187 H       1  UNL1        0.1660
@<TRIPOS>BOND
     1     1     2    2
     2     2     3   am
     3     3    28    1
     4    28    40    1
     5    40    41    1
     6    41    42   ar
     7    42    43   ar
     8    43    44   ar
     9    44    45   ar
    10    45    46   ar
    11    46    47   ar
    12    47    48   ar
    13    48    49   ar
    14    28    29    1
    15    29    30    2
    16    29    31   am
    17    31    33    1
    18    33    34   ar
    19    34    35   ar
    20    35    36   ar
    21    36    37   ar
    22    37    38    1
    23    37    39   ar
    24     2     5    1
    25     5     6   ar
    26     6     7   ar
    27     7     8   ar
    28     8    12    1
    29    12    13    1
    30    13    14    1
    31    14    15    1
    32    15    18    1
    33    18    19   ar
    34    19    20   ar
    35    20    21   ar
    36    21    24    1
    37    24    25    1
    38    24    26    1
    39    24    27    1
    40    21    22   ar
    41    22    23   ar
    42    15    16    1
    43    16    17    1
    44     8     9   ar
    45     9    10   ar
    46    10    11    1
    47    49    41   ar
    48    39    33   ar
    49    10     5   ar
    50    49    44   ar
    51    17    12    1
    52    23    18   ar
    53     3     4    1
    54    43    50    1
    55    31    32    1
@<TRIPOS>MOLECULE
*****
 50 55 0 0 0
SMALL
GASTEIGER

@<TRIPOS>ATOM
      1 O          10.1121   76.8286   26.4477 O.2     1  UNL1       -0.2701
      2 C           8.9051   77.1038   26.6917 C.2     1  UNL1        0.2483
      3 N           8.5544   77.7301   27.9355 N.am    1  UNL1       -0.2945
      4 H           7.6262   78.2043   28.0141 H       1  UNL1        0.1501
      5 C           7.8730   76.8060   25.6733 C.ar    1  UNL1        0.0808
      6 C           8.2604   76.3156   24.4158 C.ar    1  UNL1        0.0080
      7 C           7.3046   76.0311   23.4378 C.ar    1  UNL1        0.0148
      8 C           5.9364   76.2222   23.6975 C.ar    1  UNL1        0.0502
      9 C           5.5477   76.6926   24.9639 C.ar    1  UNL1        0.0443
     10 C           6.5025   76.9802   25.9443 C.ar    1  UNL1        0.1457
     11 F           6.0773   77.3828   27.1682 F       1  UNL1       -0.2040
     12 N           4.9457   75.9233   22.6885 N.pl3   1  UNL1       -0.3040
     13 C           4.1065   76.9950   22.1339 C.3     1  UNL1        0.1123
     14 C           2.7236   76.4585   21.7485 C.3     1  UNL1        0.1136
     15 N           2.8168   75.2383   20.9290 N.pl3   1  UNL1       -0.2897
     16 C           4.1074   74.5472   20.7968 C.3     1  UNL1        0.1136
     17 C           4.8661   74.5655   22.1273 C.3     1  UNL1        0.1123
     18 C           1.6858   74.7967   20.1443 C.ar    1  UNL1        0.1318
     19 C           0.9753   75.6857   19.3189 C.ar    1  UNL1        0.0343
     20 C          -0.1107   75.2208   18.5756 C.ar    1  UNL1        0.0083
     21 C          -0.4832   73.8701   18.6361 C.ar    1  UNL1        0.0906
     22 C           0.2310   73.0205   19.4940 C.ar    1  UNL1        0.1041
     23 N           1.2841   73.4960   20.2095 N.ar    1  UNL1       -0.2292
     24 C          -1.6850   73.3673   17.8777 C.3     1  UNL1        0.4200
     25 F          -2.8293   73.9254   18.4162 F       1  UNL1       -0.1658
     26 F          -1.5990   73.7158   16.5408 F       1  UNL1       -0.1658
     27 F          -1.7731   71.9885   17.9611 F       1  UNL1       -0.1658
     28 C           9.5287   77.9072   29.0170 C.3     1  UNL1        0.1535
     29 C           9.5704   79.3506   29.4369 C.2     1  UNL1        0.2443
     30 O           9.9834   80.2238   28.6253 O.2     1  UNL1       -0.2730
     31 N           9.0589   79.7363   30.7222 N.am    1  UNL1       -0.2825
     32 H           8.4312   79.0635   31.2184 H       1  UNL1        0.1549
     33 C           9.2774   81.0249   31.3210 C.ar    1  UNL1        0.0543
     34 C           9.5514   82.1281   30.5013 C.ar    1  UNL1        0.0354
     35 C           9.7419   83.3866   31.0764 C.ar    1  UNL1        0.1011
     36 N           9.6455   83.5425   32.4229 N.ar    1  UNL1       -0.2323
     37 C           9.3614   82.4965   33.2431 C.ar    1  UNL1        0.1396
     38 CL          9.2296   82.7594   34.9703 Cl      1  UNL1       -0.0613
     39 C           9.1646   81.2196   32.7083 C.ar    1  UNL1        0.0455
     40 C           9.1756   77.0195   30.2218 C.3     1  UNL1        0.0569
     41 C           7.9598   76.1848   29.9423 C.ar    1  UNL1       -0.0017
     42 C           7.9420   74.8508   29.5458 C.ar    1  UNL1        0.0681
     43 N           6.6696   74.3992   29.4658 N.ar    1  UNL1       -0.3523
     44 C           5.8855   75.4333   29.8173 C.ar    1  UNL1        0.0563
     45 C           4.4941   75.4473   29.9053 C.ar    1  UNL1        0.0170
     46 C           3.8733   76.6413   30.3161 C.ar    1  UNL1        0.0015
     47 C           4.6484   77.7803   30.6291 C.ar    1  UNL1        0.0001
     48 C           6.0513   77.7364   30.5331 C.ar    1  UNL1        0.0012
     49 C           6.6371   76.5399   30.1191 C.ar    1  UNL1        0.0131
     50 H           6.3637   73.4368   29.2001 H       1  UNL1        0.1660
@<TRIPOS>BOND
     1     1     2    2
     2     2     3   am
     3     3    28    1
     4    28    40    1
     5    40    41    1
     6    41    42   ar
     7    42    43   ar
     8    43    44   ar
     9    44    45   ar
    10    45    46   ar
    11    46    47   ar
    12    47    48   ar
    13    48    49   ar
    14    28    29    1
    15    29    30    2
    16    29    31   am
    17    31    33    1
    18    33    34   ar
    19    34    35   ar
    20    35    36   ar
    21    36    37   ar
    22    37    38    1
    23    37    39   ar
    24     2     5    1
    25     5     6   ar
    26     6     7   ar
    27     7     8   ar
    28     8    12    1
    29    12    13    1
    30    13    14    1
    31    14    15    1
    32    15    18    1
    33    18    19   ar
    34    19    20   ar
    35    20    21   ar
    36    21    24    1
    37    24    25    1
    38    24    26    1
    39    24    27    1
    40    21    22   ar
    41    22    23   ar
    42    15    16    1
    43    16    17    1
    44     8     9   ar
    45     9    10   ar
    46    10    11    1
    47    49    41   ar
    48    39    33   ar
    49    10     5   ar
    50    49    44   ar
    51    17    12    1
    52    23    18   ar
    53     3     4    1
    54    43    50    1
    55    31    32    1
@<TRIPOS>MOLECULE
*****
 50 55 0 0 0
SMALL
GASTEIGER

@<TRIPOS>ATOM
      1 O          10.3137   75.6650   22.8380 O.2     1  UNL1       -0.2701
      2 C           9.6522   76.6537   23.2587 C.2     1  UNL1        0.2483
      3 N           8.2231   76.5617   23.3649 N.am    1  UNL1       -0.2945
      4 H           7.7191   77.2540   23.9645 H       1  UNL1        0.1501
      5 C          10.3672   77.8833   23.6689 C.ar    1  UNL1        0.0808
      6 C          11.5304   77.7819   24.4488 C.ar    1  UNL1        0.0080
      7 C          12.2196   78.9284   24.8509 C.ar    1  UNL1        0.0148
      8 C          11.7661   80.2046   24.4747 C.ar    1  UNL1        0.0502
      9 C          10.6139   80.3045   23.6757 C.ar    1  UNL1        0.0443
     10 C           9.9207   79.1586   23.2734 C.ar    1  UNL1        0.1457
     11 F           8.8437   79.3015   22.4606 F       1  UNL1       -0.2040
     12 N          12.4810   81.3917   24.8854 N.pl3   1  UNL1       -0.3040
     13 C          13.6463   81.2841   25.7746 C.3     1  UNL1        0.1123
     14 C          13.7614   82.5212   26.6721 C.3     1  UNL1        0.1136
     15 N          13.6676   83.7712   25.8989 N.pl3   1  UNL1       -0.2897
     16 C          13.2325   83.7280   24.4954 C.3     1  UNL1        0.1136
     17 C          12.1162   82.6958   24.3099 C.3     1  UNL1        0.1123
     18 C          14.1323   85.0175   26.4652 C.ar    1  UNL1        0.1318
     19 C          14.2843   85.1795   27.8534 C.ar    1  UNL1        0.0343
     20 C          14.7366   86.3982   28.3617 C.ar    1  UNL1        0.0083
     21 C          15.0554   87.4524   27.4934 C.ar    1  UNL1        0.0906
     22 C          14.8618   87.2626   26.1170 C.ar    1  UNL1        0.1041
     23 N          14.4188   86.0676   25.6451 N.ar    1  UNL1       -0.2292
     24 C          15.4960   88.7891   28.0332 C.3     1  UNL1        0.4200
     25 F          16.1094   89.5077   27.0241 F       1  UNL1       -0.1658
     26 F          14.4101   89.5075   28.5029 F       1  UNL1       -0.1658
     27 F          16.3901   88.6235   29.0768 F       1  UNL1       -0.1658
     28 C           7.4778   75.4150   22.8360 C.3     1  UNL1        0.1535
     29 C           6.0354   75.5063   23.2515 C.2     1  UNL1        0.2443
     30 O           5.3241   74.4644   23.2657 O.2     1  UNL1       -0.2730
     31 N           5.5022   76.7574   23.7126 N.am    1  UNL1       -0.2825
     32 H           6.1801   77.4978   24.0044 H       1  UNL1        0.1549
     33 C           4.0993   77.0175   23.8890 C.ar    1  UNL1        0.0543
     34 C           3.5403   76.9411   25.1718 C.ar    1  UNL1        0.0354
     35 C           2.1826   77.2151   25.3520 C.ar    1  UNL1        0.1011
     36 N           1.4120   77.5701   24.2905 N.ar    1  UNL1       -0.2323
     37 C           1.9284   77.6725   23.0374 C.ar    1  UNL1        0.1396
     38 CL          0.8923   78.1536   21.7089 Cl      1  UNL1       -0.0613
     39 C           3.2825   77.4058   22.8131 C.ar    1  UNL1        0.0455
     40 C           7.5803   75.3564   21.3029 C.3     1  UNL1        0.0569
     41 C           6.6771   76.3683   20.6601 C.ar    1  UNL1       -0.0017
     42 C           6.9034   77.7379   20.5601 C.ar    1  UNL1        0.0681
     43 N           5.9181   78.3281   19.8458 N.ar    1  UNL1       -0.3523
     44 C           5.0777   77.3420   19.4866 C.ar    1  UNL1        0.0563
     45 C           3.9185   77.4565   18.7204 C.ar    1  UNL1        0.0170
     46 C           3.1939   76.2823   18.4448 C.ar    1  UNL1        0.0015
     47 C           3.6408   75.0340   18.9329 C.ar    1  UNL1        0.0001
     48 C           4.8157   74.9484   19.7020 C.ar    1  UNL1        0.0012
     49 C           5.5097   76.1303   19.9620 C.ar    1  UNL1        0.0131
     50 H           5.8389   79.3422   19.6099 H       1  UNL1        0.1660
@<TRIPOS>BOND
     1     1     2    2
     2     2     3   am
     3     3    28    1
     4    28    40    1
     5    40    41    1
     6    41    42   ar
     7    42    43   ar
     8    43    44   ar
     9    44    45   ar
    10    45    46   ar
    11    46    47   ar
    12    47    48   ar
    13    48    49   ar
    14    28    29    1
    15    29    30    2
    16    29    31   am
    17    31    33    1
    18    33    34   ar
    19    34    35   ar
    20    35    36   ar
    21    36    37   ar
    22    37    38    1
    23    37    39   ar
    24     2     5    1
    25     5     6   ar
    26     6     7   ar
    27     7     8   ar
    28     8    12    1
    29    12    13    1
    30    13    14    1
    31    14    15    1
    32    15    18    1
    33    18    19   ar
    34    19    20   ar
    35    20    21   ar
    36    21    24    1
    37    24    25    1
    38    24    26    1
    39    24    27    1
    40    21    22   ar
    41    22    23   ar
    42    15    16    1
    43    16    17    1
    44     8     9   ar
    45     9    10   ar
    46    10    11    1
    47    49    41   ar
    48    39    33   ar
    49    10     5   ar
    50    49    44   ar
    51    17    12    1
    52    23    18   ar
    53     3     4    1
    54    43    50    1
    55    31    32    1
@<TRIPOS>MOLECULE
*****
 50 55 0 0 0
SMALL
GASTEIGER

@<TRIPOS>ATOM
      1 O          14.5002   82.9605   24.0711 O.2     1  UNL1       -0.2701
      2 C          13.2643   83.1401   24.2514 C.2     1  UNL1        0.2483
      3 N          12.6751   84.4106   23.9339 N.am    1  UNL1       -0.2945
      4 H          11.6381   84.4667   23.8144 H       1  UNL1        0.1501
      5 C          12.4351   82.0229   24.7568 C.ar    1  UNL1        0.0808
      6 C          11.0678   82.2292   25.0012 C.ar    1  UNL1        0.0080
      7 C          10.2664   81.1910   25.4819 C.ar    1  UNL1        0.0148
      8 C          10.8122   79.9179   25.7213 C.ar    1  UNL1        0.0502
      9 C          12.1763   79.7061   25.4558 C.ar    1  UNL1        0.0443
     10 C          12.9815   80.7442   24.9766 C.ar    1  UNL1        0.1457
     11 F          14.2801   80.4793   24.6864 F       1  UNL1       -0.2040
     12 N           9.9833   78.8411   26.2135 N.pl3   1  UNL1       -0.3040
     13 C           9.1889   78.0312   25.2789 C.3     1  UNL1        0.1123
     14 C           7.8944   77.5486   25.9425 C.3     1  UNL1        0.1136
     15 N           8.1471   76.9340   27.2568 N.pl3   1  UNL1       -0.2897
     16 C           9.4691   77.0747   27.8840 C.3     1  UNL1        0.1136
     17 C          10.0346   78.4768   27.6381 C.3     1  UNL1        0.1123
     18 C           7.1538   76.0792   27.8672 C.ar    1  UNL1        0.1318
     19 C           7.0659   74.7133   27.5459 C.ar    1  UNL1        0.0343
     20 C           6.0936   73.9205   28.1575 C.ar    1  UNL1        0.0083
     21 C           5.2182   74.4767   29.1015 C.ar    1  UNL1        0.0906
     22 C           5.3171   75.8494   29.3731 C.ar    1  UNL1        0.1041
     23 N           6.2709   76.6021   28.7642 N.ar    1  UNL1       -0.2292
     24 C           4.1317   73.6424   29.7305 C.3     1  UNL1        0.4200
     25 F           3.0669   74.4583   30.0643 F       1  UNL1       -0.1658
     26 F           3.6946   72.6671   28.8510 F       1  UNL1       -0.1658
     27 F           4.5969   73.0171   30.8745 F       1  UNL1       -0.1658
     28 C          13.4894   85.5741   23.5683 C.3     1  UNL1        0.1535
     29 C          13.5258   86.5523   24.7098 C.2     1  UNL1        0.2443
     30 O          12.7443   87.5427   24.7065 O.2     1  UNL1       -0.2730
     31 N          14.3839   86.3065   25.8348 N.am    1  UNL1       -0.2825
     32 H          14.7534   85.3370   25.9628 H       1  UNL1        0.1549
     33 C          14.6849   87.2839   26.8452 C.ar    1  UNL1        0.0543
     34 C          15.8230   88.0899   26.7069 C.ar    1  UNL1        0.0354
     35 C          16.1076   89.0564   27.6742 C.ar    1  UNL1        0.1011
     36 N          15.2755   89.2248   28.7353 N.ar    1  UNL1       -0.2323
     37 C          14.1535   88.4727   28.8876 C.ar    1  UNL1        0.1396
     38 CL         13.1062   88.7466   30.2652 Cl      1  UNL1       -0.0613
     39 C          13.8323   87.4934   27.9427 C.ar    1  UNL1        0.0455
     40 C          14.9188   85.1460   23.1972 C.3     1  UNL1        0.0569
     41 C          15.5776   86.1647   22.3132 C.ar    1  UNL1       -0.0017
     42 C          15.2150   86.4909   21.0097 C.ar    1  UNL1        0.0681
     43 N          15.9765   87.5095   20.5491 N.ar    1  UNL1       -0.3523
     44 C          16.8093   87.8346   21.5533 C.ar    1  UNL1        0.0563
     45 C          17.7717   88.8433   21.5602 C.ar    1  UNL1        0.0170
     46 C          18.5255   89.0248   22.7344 C.ar    1  UNL1        0.0015
     47 C          18.3007   88.2055   23.8632 C.ar    1  UNL1        0.0001
     48 C          17.3210   87.1964   23.8281 C.ar    1  UNL1        0.0012
     49 C          16.5932   87.0382   22.6486 C.ar    1  UNL1        0.0131
     50 H          15.9154   87.9596   19.6088 H       1  UNL1        0.1660
@<TRIPOS>BOND
     1     1     2    2
     2     2     3   am
     3     3    28    1
     4    28    40    1
     5    40    41    1
     6    41    42   ar
     7    42    43   ar
     8    43    44   ar
     9    44    45   ar
    10    45    46   ar
    11    46    47   ar
    12    47    48   ar
    13    48    49   ar
    14    28    29    1
    15    29    30    2
    16    29    31   am
    17    31    33    1
    18    33    34   ar
    19    34    35   ar
    20    35    36   ar
    21    36    37   ar
    22    37    38    1
    23    37    39   ar
    24     2     5    1
    25     5     6   ar
    26     6     7   ar
    27     7     8   ar
    28     8    12    1
    29    12    13    1
    30    13    14    1
    31    14    15    1
    32    15    18    1
    33    18    19   ar
    34    19    20   ar
    35    20    21   ar
    36    21    24    1
    37    24    25    1
    38    24    26    1
    39    24    27    1
    40    21    22   ar
    41    22    23   ar
    42    15    16    1
    43    16    17    1
    44     8     9   ar
    45     9    10   ar
    46    10    11    1
    47    49    41   ar
    48    39    33   ar
    49    10     5   ar
    50    49    44   ar
    51    17    12    1
    52    23    18   ar
    53     3     4    1
    54    43    50    1
    55    31    32    1
@<TRIPOS>MOLECULE
*****
 50 55 0 0 0
SMALL
GASTEIGER

@<TRIPOS>ATOM
      1 O           8.9719   75.0545   26.1797 O.2     1  UNL1       -0.2701
      2 C           8.4982   76.0861   25.6286 C.2     1  UNL1        0.2483
      3 N           7.1327   76.0932   25.1842 N.am    1  UNL1       -0.2945
      4 H           6.6712   77.0122   24.9963 H       1  UNL1        0.1501
      5 C           9.3519   77.2863   25.4805 C.ar    1  UNL1        0.0808
      6 C           9.0201   78.4631   26.1708 C.ar    1  UNL1        0.0080
      7 C           9.8085   79.6091   26.0434 C.ar    1  UNL1        0.0148
      8 C          10.9538   79.6026   25.2285 C.ar    1  UNL1        0.0502
      9 C          11.2977   78.4177   24.5548 C.ar    1  UNL1        0.0443
     10 C          10.5091   77.2696   24.6788 C.ar    1  UNL1        0.1457
     11 F          10.9085   76.1351   24.0508 F       1  UNL1       -0.2040
     12 N          11.7738   80.7858   25.0998 N.pl3   1  UNL1       -0.3040
     13 C          11.2144   82.1111   25.4016 C.3     1  UNL1        0.1123
     14 C          11.8638   83.1878   24.5253 C.3     1  UNL1        0.1136
     15 N          13.3338   83.1005   24.5472 N.pl3   1  UNL1       -0.2897
     16 C          13.9843   81.9205   25.1348 C.3     1  UNL1        0.1136
     17 C          13.2051   80.6483   24.7878 C.3     1  UNL1        0.1123
     18 C          14.1392   84.2242   24.1242 C.ar    1  UNL1        0.1318
     19 C          14.2480   85.3844   24.9107 C.ar    1  UNL1        0.0343
     20 C          15.0364   86.4479   24.4685 C.ar    1  UNL1        0.0083
     21 C          15.7318   86.3559   23.2541 C.ar    1  UNL1        0.0906
     22 C          15.5740   85.1946   22.4831 C.ar    1  UNL1        0.1041
     23 N          14.7998   84.1724   22.9333 N.ar    1  UNL1       -0.2292
     24 C          16.5452   87.5170   22.7419 C.3     1  UNL1        0.4200
     25 F          16.8026   87.3340   21.3961 F       1  UNL1       -0.1658
     26 F          15.8584   88.7067   22.9123 F       1  UNL1       -0.1658
     27 F          17.7469   87.6093   23.4226 F       1  UNL1       -0.1658
     28 C           6.3090   74.8801   25.1881 C.3     1  UNL1        0.1535
     29 C           6.9372   73.8321   24.3115 C.2     1  UNL1        0.2443
     30 O           6.3685   72.7147   24.1712 O.2     1  UNL1       -0.2730
     31 N           8.1294   74.1394   23.5723 N.am    1  UNL1       -0.2825
     32 H           8.3779   75.1470   23.4458 H       1  UNL1        0.1549
     33 C           8.9447   73.1542   22.9154 C.ar    1  UNL1        0.0543
     34 C           8.3335   72.0544   22.2983 C.ar    1  UNL1        0.0354
     35 C           9.1193   71.1063   21.6392 C.ar    1  UNL1        0.1011
     36 N          10.4685   71.2592   21.5829 N.ar    1  UNL1       -0.2323
     37 C          11.0894   72.3249   22.1542 C.ar    1  UNL1        0.1396
     38 CL         12.8303   72.4814   22.0336 Cl      1  UNL1       -0.0613
     39 C          10.3400   73.2964   22.8246 C.ar    1  UNL1        0.0455
     40 C           6.1408   74.3380   26.6171 C.3     1  UNL1        0.0569
     41 C           5.4759   75.3487   27.5056 C.ar    1  UNL1       -0.0017
     42 C           4.4729   76.2421   27.1409 C.ar    1  UNL1        0.0681
     43 N           4.0540   76.9462   28.2171 N.ar    1  UNL1       -0.3523
     44 C           4.7769   76.4985   29.2585 C.ar    1  UNL1        0.0563
     45 C           4.6891   76.9102   30.5877 C.ar    1  UNL1        0.0170
     46 C           5.5338   76.2886   31.5256 C.ar    1  UNL1        0.0015
     47 C           6.4346   75.2789   31.1193 C.ar    1  UNL1        0.0001
     48 C           6.4999   74.8822   29.7711 C.ar    1  UNL1        0.0012
     49 C           5.6531   75.5199   28.8643 C.ar    1  UNL1        0.0131
     50 H           3.3085   77.6772   28.2339 H       1  UNL1        0.1660
@<TRIPOS>BOND
     1     1     2    2
     2     2     3   am
     3     3    28    1
     4    28    40    1
     5    40    41    1
     6    41    42   ar
     7    42    43   ar
     8    43    44   ar
     9    44    45   ar
    10    45    46   ar
    11    46    47   ar
    12    47    48   ar
    13    48    49   ar
    14    28    29    1
    15    29    30    2
    16    29    31   am
    17    31    33    1
    18    33    34   ar
    19    34    35   ar
    20    35    36   ar
    21    36    37   ar
    22    37    38    1
    23    37    39   ar
    24     2     5    1
    25     5     6   ar
    26     6     7   ar
    27     7     8   ar
    28     8    12    1
    29    12    13    1
    30    13    14    1
    31    14    15    1
    32    15    18    1
    33    18    19   ar
    34    19    20   ar
    35    20    21   ar
    36    21    24    1
    37    24    25    1
    38    24    26    1
    39    24    27    1
    40    21    22   ar
    41    22    23   ar
    42    15    16    1
    43    16    17    1
    44     8     9   ar
    45     9    10   ar
    46    10    11    1
    47    49    41   ar
    48    39    33   ar
    49    10     5   ar
    50    49    44   ar
    51    17    12    1
    52    23    18   ar
    53     3     4    1
    54    43    50    1
    55    31    32    1
