@<TRIPOS>MOLECULE
*****
 51 56 0 0 0
SMALL
GASTEIGER

@<TRIPOS>ATOM
      1 O          10.5522   76.1000   26.1017 O.2     1  UNL1       -0.2701
      2 C           9.4064   76.6271   26.1349 C.2     1  UNL1        0.2484
      3 N           9.0669   77.5286   27.1996 N.am    1  UNL1       -0.2945
      4 H           8.2370   78.1533   27.0823 H       1  UNL1        0.1501
      5 C           8.4401   76.3324   25.0536 C.ar    1  UNL1        0.0839
      6 C           8.9063   75.8371   23.8254 C.ar    1  UNL1        0.0082
      7 C           8.0143   75.5565   22.7893 C.ar    1  UNL1        0.0179
      8 C           6.6388   75.7537   22.9649 C.ar    1  UNL1        0.0844
      9 C           6.1578   76.2381   24.1933 C.ar    1  UNL1        0.1748
     10 O           4.7883   76.4435   24.3640 O.3     1  UNL1       -0.5026
     11 C           7.0556   76.5195   25.2370 C.ar    1  UNL1        0.1791
     12 F           6.5698   76.9301   26.4364 F       1  UNL1       -0.2008
     13 H           4.4008   76.7949   25.2315 H       1  UNL1        0.2923
     14 N           5.7304   75.4583   21.8924 N.pl3   1  UNL1       -0.3017
     15 C           4.9985   76.5535   21.2443 C.3     1  UNL1        0.1124
     16 C           4.1550   76.0518   20.0651 C.3     1  UNL1        0.1136
     17 N           3.4140   74.8328   20.4311 N.pl3   1  UNL1       -0.2897
     18 C           4.0827   73.7774   21.2145 C.3     1  UNL1        0.1136
     19 C           5.5684   74.0797   21.4233 C.3     1  UNL1        0.1124
     20 C           2.1001   74.6008   19.8720 C.ar    1  UNL1        0.1318
     21 C           1.4122   75.6076   19.1710 C.ar    1  UNL1        0.0343
     22 C           0.1452   75.3443   18.6483 C.ar    1  UNL1        0.0083
     23 C          -0.4342   74.0765   18.8013 C.ar    1  UNL1        0.0906
     24 C           0.2720   73.1053   19.5264 C.ar    1  UNL1        0.1041
     25 N           1.5035   73.3852   20.0284 N.ar    1  UNL1       -0.2292
     26 C          -1.8224   73.7957   18.2850 C.3     1  UNL1        0.4200
     27 F          -2.7766   74.2652   19.1711 F       1  UNL1       -0.1658
     28 F          -1.9833   72.4316   18.1306 F       1  UNL1       -0.1658
     29 F          -2.0237   74.4151   17.0636 F       1  UNL1       -0.1658
     30 C           9.9364   77.7164   28.3652 C.3     1  UNL1        0.1535
     31 C           9.8171   79.1284   28.8706 C.2     1  UNL1        0.2443
     32 O           9.4378   80.0338   28.0792 O.2     1  UNL1       -0.2730
     33 N          10.2028   79.4534   30.2164 N.am    1  UNL1       -0.2825
     34 H          10.8093   78.7744   30.7296 H       1  UNL1        0.1549
     35 C           9.8761   80.6916   30.8698 C.ar    1  UNL1        0.0535
     36 C          10.2300   81.9327   30.3135 C.ar    1  UNL1        0.0353
     37 C           9.8672   83.1108   30.9711 C.ar    1  UNL1        0.1002
     38 N           9.1647   83.0554   32.1334 N.ar    1  UNL1       -0.2422
     39 C           8.7931   81.8698   32.6846 C.ar    1  UNL1        0.1002
     40 C           9.1343   80.6684   32.0587 C.ar    1  UNL1        0.0353
     41 C           9.5792   76.7221   29.4836 C.3     1  UNL1        0.0569
     42 C           8.0919   76.6114   29.6568 C.ar    1  UNL1       -0.0017
     43 C           7.2566   77.5413   30.2690 C.ar    1  UNL1        0.0681
     44 N           5.9649   77.1523   30.1706 N.ar    1  UNL1       -0.3523
     45 C           5.9771   75.9906   29.4942 C.ar    1  UNL1        0.0563
     46 C           4.8785   75.2139   29.1286 C.ar    1  UNL1        0.0170
     47 C           5.1202   74.0350   28.3997 C.ar    1  UNL1        0.0015
     48 C           6.4390   73.6649   28.0538 C.ar    1  UNL1        0.0001
     49 C           7.5284   74.4694   28.4343 C.ar    1  UNL1        0.0012
     50 C           7.2573   75.6297   29.1599 C.ar    1  UNL1        0.0131
     51 H           5.1293   77.6627   30.5337 H       1  UNL1        0.1660
@<TRIPOS>BOND
     1     1     2    2
     2     2     3   am
     3     3    30    1
     4    30    41    1
     5    41    42    1
     6    42    43   ar
     7    43    44   ar
     8    44    45   ar
     9    45    46   ar
    10    46    47   ar
    11    47    48   ar
    12    48    49   ar
    13    49    50   ar
    14    30    31    1
    15    31    32    2
    16    31    33   am
    17    33    35    1
    18    35    36   ar
    19    36    37   ar
    20    37    38   ar
    21    38    39   ar
    22    39    40   ar
    23     2     5    1
    24     5     6   ar
    25     6     7   ar
    26     7     8   ar
    27     8    14    1
    28    14    15    1
    29    15    16    1
    30    16    17    1
    31    17    20    1
    32    20    21   ar
    33    21    22   ar
    34    22    23   ar
    35    23    26    1
    36    26    27    1
    37    26    28    1
    38    26    29    1
    39    23    24   ar
    40    24    25   ar
    41    17    18    1
    42    18    19    1
    43     8     9   ar
    44     9    10    1
    45     9    11   ar
    46    11    12    1
    47    50    42   ar
    48    40    35   ar
    49    11     5   ar
    50    50    45   ar
    51    19    14    1
    52    25    20   ar
    53     3     4    1
    54    44    51    1
    55    33    34    1
    56    10    13    1
@<TRIPOS>MOLECULE
*****
 51 56 0 0 0
SMALL
GASTEIGER

@<TRIPOS>ATOM
      1 O          10.7066   77.5703   25.5631 O.2     1  UNL1       -0.2701
      2 C           9.5010   77.3734   25.8784 C.2     1  UNL1        0.2484
      3 N           9.0799   77.5603   27.2383 N.am    1  UNL1       -0.2945
      4 H           8.0583   77.6548   27.4385 H       1  UNL1        0.1501
      5 C           8.5308   76.9846   24.8307 C.ar    1  UNL1        0.0839
      6 C           8.9509   76.9073   23.4934 C.ar    1  UNL1        0.0082
      7 C           8.0527   76.5476   22.4875 C.ar    1  UNL1        0.0179
      8 C           6.7212   76.2463   22.8005 C.ar    1  UNL1        0.0844
      9 C           6.2905   76.3086   24.1367 C.ar    1  UNL1        0.1748
     10 O           4.9613   76.0177   24.4463 O.3     1  UNL1       -0.5026
     11 C           7.1950   76.6696   25.1497 C.ar    1  UNL1        0.1791
     12 F           6.7782   76.6674   26.4418 F       1  UNL1       -0.2008
     13 H           4.6094   76.0547   25.3954 H       1  UNL1        0.2923
     14 N           5.8070   75.8742   21.7572 N.pl3   1  UNL1       -0.3017
     15 C           5.0025   76.9109   21.0989 C.3     1  UNL1        0.1124
     16 C           4.1620   76.3336   19.9527 C.3     1  UNL1        0.1136
     17 N           3.4967   75.0864   20.3663 N.pl3   1  UNL1       -0.2897
     18 C           4.2389   74.0896   21.1601 C.3     1  UNL1        0.1136
     19 C           5.7101   74.4770   21.3267 C.3     1  UNL1        0.1124
     20 C           2.1855   74.7692   19.8438 C.ar    1  UNL1        0.1318
     21 C           1.4347   75.7141   19.1216 C.ar    1  UNL1        0.0343
     22 C           0.1725   75.3694   18.6357 C.ar    1  UNL1        0.0083
     23 C          -0.3396   74.0812   18.8468 C.ar    1  UNL1        0.0906
     24 C           0.4282   73.1736   19.5915 C.ar    1  UNL1        0.1041
     25 N           1.6536   73.5324   20.0568 N.ar    1  UNL1       -0.2292
     26 C          -1.7218   73.7132   18.3705 C.3     1  UNL1        0.4200
     27 F          -2.6735   74.0768   19.3076 F       1  UNL1       -0.1658
     28 F          -1.7855   72.3471   18.1701 F       1  UNL1       -0.1658
     29 F          -2.0163   74.3579   17.1816 F       1  UNL1       -0.1658
     30 C          10.0390   77.7869   28.3240 C.3     1  UNL1        0.1535
     31 C           9.8851   79.1843   28.8597 C.2     1  UNL1        0.2443
     32 O           9.5715   80.1143   28.0679 O.2     1  UNL1       -0.2730
     33 N          10.1656   79.4682   30.2404 N.am    1  UNL1       -0.2825
     34 H          10.7282   78.7714   30.7792 H       1  UNL1        0.1549
     35 C           9.7929   80.6887   30.9023 C.ar    1  UNL1        0.0535
     36 C           9.0960   80.6804   32.1227 C.ar    1  UNL1        0.0353
     37 C           8.7789   81.8916   32.7429 C.ar    1  UNL1        0.1002
     38 N           9.1550   83.0682   32.1756 N.ar    1  UNL1       -0.2422
     39 C           9.8456   83.1055   31.0055 C.ar    1  UNL1        0.1002
     40 C          10.1841   81.9174   30.3533 C.ar    1  UNL1        0.0353
     41 C           9.8420   76.7622   29.4546 C.3     1  UNL1        0.0569
     42 C           8.5326   76.0413   29.3116 C.ar    1  UNL1       -0.0017
     43 C           8.3267   74.8096   28.6970 C.ar    1  UNL1        0.0681
     44 N           7.0359   74.4270   28.8273 N.ar    1  UNL1       -0.3523
     45 C           6.4282   75.4015   29.5261 C.ar    1  UNL1        0.0563
     46 C           5.0938   75.4474   29.9275 C.ar    1  UNL1        0.0170
     47 C           4.6700   76.5616   30.6749 C.ar    1  UNL1        0.0015
     48 C           5.5798   77.5914   31.0032 C.ar    1  UNL1        0.0001
     49 C           6.9214   77.5173   30.5865 C.ar    1  UNL1        0.0012
     50 C           7.3104   76.4025   29.8433 C.ar    1  UNL1        0.0131
     51 H           6.6067   73.5446   28.4700 H       1  UNL1        0.1660
@<TRIPOS>BOND
     1     1     2    2
     2     2     3   am
     3     3    30    1
     4    30    41    1
     5    41    42    1
     6    42    43   ar
     7    43    44   ar
     8    44    45   ar
     9    45    46   ar
    10    46    47   ar
    11    47    48   ar
    12    48    49   ar
    13    49    50   ar
    14    30    31    1
    15    31    32    2
    16    31    33   am
    17    33    35    1
    18    35    36   ar
    19    36    37   ar
    20    37    38   ar
    21    38    39   ar
    22    39    40   ar
    23     2     5    1
    24     5     6   ar
    25     6     7   ar
    26     7     8   ar
    27     8    14    1
    28    14    15    1
    29    15    16    1
    30    16    17    1
    31    17    20    1
    32    20    21   ar
    33    21    22   ar
    34    22    23   ar
    35    23    26    1
    36    26    27    1
    37    26    28    1
    38    26    29    1
    39    23    24   ar
    40    24    25   ar
    41    17    18    1
    42    18    19    1
    43     8     9   ar
    44     9    10    1
    45     9    11   ar
    46    11    12    1
    47    50    42   ar
    48    40    35   ar
    49    11     5   ar
    50    50    45   ar
    51    19    14    1
    52    25    20   ar
    53     3     4    1
    54    44    51    1
    55    33    34    1
    56    10    13    1
@<TRIPOS>MOLECULE
*****
 51 56 0 0 0
SMALL
GASTEIGER

@<TRIPOS>ATOM
      1 O          10.9422   74.8270   25.4541 O.2     1  UNL1       -0.2701
      2 C          10.0894   75.7448   25.3057 C.2     1  UNL1        0.2484
      3 N          10.1989   76.9513   26.0764 N.am    1  UNL1       -0.2945
      4 H           9.6631   77.7941   25.7675 H       1  UNL1        0.1501
      5 C           9.0062   75.5756   24.3117 C.ar    1  UNL1        0.0839
      6 C           9.3104   75.6255   22.9420 C.ar    1  UNL1        0.0082
      7 C           8.3048   75.4734   21.9863 C.ar    1  UNL1        0.0179
      8 C           6.9786   75.2563   22.3808 C.ar    1  UNL1        0.0844
      9 C           6.6623   75.1926   23.7486 C.ar    1  UNL1        0.1748
     10 O           5.3392   74.9860   24.1407 O.3     1  UNL1       -0.5026
     11 C           7.6748   75.3445   24.7111 C.ar    1  UNL1        0.1791
     12 F           7.3626   75.2212   26.0265 F       1  UNL1       -0.2008
     13 H           5.0682   74.9376   25.1156 H       1  UNL1        0.2923
     14 N           5.9529   75.0980   21.3880 N.pl3   1  UNL1       -0.3017
     15 C           5.1976   76.2733   20.9370 C.3     1  UNL1        0.1124
     16 C           4.2178   75.9195   19.8107 C.3     1  UNL1        0.1136
     17 N           3.4753   74.6879   20.1287 N.pl3   1  UNL1       -0.2897
     18 C           4.1835   73.5396   20.7242 C.3     1  UNL1        0.1136
     19 C           5.6929   73.7807   20.8014 C.3     1  UNL1        0.1124
     20 C           2.1026   74.5490   19.6936 C.ar    1  UNL1        0.1318
     21 C           1.4000   75.6268   19.1254 C.ar    1  UNL1        0.0343
     22 C           0.0759   75.4525   18.7200 C.ar    1  UNL1        0.0083
     23 C          -0.5480   74.2042   18.8578 C.ar    1  UNL1        0.0906
     24 C           0.1770   73.1597   19.4502 C.ar    1  UNL1        0.1041
     25 N           1.4645   73.3534   19.8396 N.ar    1  UNL1       -0.2292
     26 C          -1.9928   74.0173   18.4701 C.3     1  UNL1        0.4200
     27 F          -2.2960   74.7629   17.3439 F       1  UNL1       -0.1658
     28 F          -2.8009   74.4280   19.5135 F       1  UNL1       -0.1658
     29 F          -2.2557   72.6870   18.1923 F       1  UNL1       -0.1658
     30 C          11.1584   77.0854   27.1770 C.3     1  UNL1        0.1535
     31 C          12.5001   77.5016   26.6385 C.2     1  UNL1        0.2443
     32 O          13.5415   77.1923   27.2788 O.2     1  UNL1       -0.2730
     33 N          12.5886   78.3057   25.4506 N.am    1  UNL1       -0.2825
     34 H          11.7304   78.8137   25.1379 H       1  UNL1        0.1549
     35 C          13.8044   78.5216   24.7143 C.ar    1  UNL1        0.0535
     36 C          14.5677   79.6897   24.8810 C.ar    1  UNL1        0.0353
     37 C          15.7569   79.8435   24.1638 C.ar    1  UNL1        0.1002
     38 N          16.1782   78.8630   23.3220 N.ar    1  UNL1       -0.2422
     39 C          15.4697   77.7150   23.1553 C.ar    1  UNL1        0.1002
     40 C          14.2760   77.5205   23.8544 C.ar    1  UNL1        0.0353
     41 C          10.6648   78.1077   28.2155 C.3     1  UNL1        0.0569
     42 C           9.3375   77.7019   28.7883 C.ar    1  UNL1       -0.0017
     43 C           8.2273   78.5212   28.9705 C.ar    1  UNL1        0.0681
     44 N           7.1797   77.8010   29.4322 N.ar    1  UNL1       -0.3523
     45 C           7.6163   76.5336   29.5343 C.ar    1  UNL1        0.0563
     46 C           6.8880   75.4197   29.9497 C.ar    1  UNL1        0.0170
     47 C           7.5417   74.1739   29.9618 C.ar    1  UNL1        0.0015
     48 C           8.8922   74.0701   29.5600 C.ar    1  UNL1        0.0001
     49 C           9.6018   75.2111   29.1434 C.ar    1  UNL1        0.0012
     50 C           8.9279   76.4326   29.1464 C.ar    1  UNL1        0.0131
     51 H           6.2226   78.1584   29.6486 H       1  UNL1        0.1660
@<TRIPOS>BOND
     1     1     2    2
     2     2     3   am
     3     3    30    1
     4    30    41    1
     5    41    42    1
     6    42    43   ar
     7    43    44   ar
     8    44    45   ar
     9    45    46   ar
    10    46    47   ar
    11    47    48   ar
    12    48    49   ar
    13    49    50   ar
    14    30    31    1
    15    31    32    2
    16    31    33   am
    17    33    35    1
    18    35    36   ar
    19    36    37   ar
    20    37    38   ar
    21    38    39   ar
    22    39    40   ar
    23     2     5    1
    24     5     6   ar
    25     6     7   ar
    26     7     8   ar
    27     8    14    1
    28    14    15    1
    29    15    16    1
    30    16    17    1
    31    17    20    1
    32    20    21   ar
    33    21    22   ar
    34    22    23   ar
    35    23    26    1
    36    26    27    1
    37    26    28    1
    38    26    29    1
    39    23    24   ar
    40    24    25   ar
    41    17    18    1
    42    18    19    1
    43     8     9   ar
    44     9    10    1
    45     9    11   ar
    46    11    12    1
    47    50    42   ar
    48    40    35   ar
    49    11     5   ar
    50    50    45   ar
    51    19    14    1
    52    25    20   ar
    53     3     4    1
    54    44    51    1
    55    33    34    1
    56    10    13    1
@<TRIPOS>MOLECULE
*****
 51 56 0 0 0
SMALL
GASTEIGER

@<TRIPOS>ATOM
      1 O          10.5224   75.2838   25.7600 O.2     1  UNL1       -0.2701
      2 C           9.7483   76.1998   25.3683 C.2     1  UNL1        0.2484
      3 N           9.8746   77.5220   25.9138 N.am    1  UNL1       -0.2945
      4 H           9.4240   78.3182   25.4082 H       1  UNL1        0.1501
      5 C           8.7419   75.9030   24.3247 C.ar    1  UNL1        0.0839
      6 C           7.3877   75.7976   24.6799 C.ar    1  UNL1        0.0082
      7 C           6.4212   75.5135   23.7139 C.ar    1  UNL1        0.0179
      8 C           6.7879   75.3418   22.3731 C.ar    1  UNL1        0.0844
      9 C           8.1385   75.4562   22.0022 C.ar    1  UNL1        0.1748
     10 O           8.5041   75.2753   20.6678 O.3     1  UNL1       -0.5026
     11 C           9.1116   75.7434   22.9744 C.ar    1  UNL1        0.1791
     12 F          10.4033   75.9091   22.5905 F       1  UNL1       -0.2008
     13 H           9.4664   75.3451   20.3593 H       1  UNL1        0.2923
     14 N           5.7839   75.0531   21.3875 N.pl3   1  UNL1       -0.3017
     15 C           5.1469   76.1585   20.6611 C.3     1  UNL1        0.1124
     16 C           4.1759   75.6472   19.5890 C.3     1  UNL1        0.1136
     17 N           3.3208   74.5742   20.1242 N.pl3   1  UNL1       -0.2897
     18 C           3.9087   73.5299   20.9836 C.3     1  UNL1        0.1136
     19 C           5.4300   73.6645   21.0817 C.3     1  UNL1        0.1124
     20 C           1.9554   74.4514   19.6619 C.ar    1  UNL1        0.1318
     21 C           1.2746   75.5392   19.0864 C.ar    1  UNL1        0.0343
     22 C          -0.0430   75.3803   18.6544 C.ar    1  UNL1        0.0083
     23 C          -0.6818   74.1377   18.7732 C.ar    1  UNL1        0.0906
     24 C           0.0212   73.0827   19.3736 C.ar    1  UNL1        0.1041
     25 N           1.3028   73.2615   19.7889 N.ar    1  UNL1       -0.2292
     26 C          -2.1206   73.9673   18.3565 C.3     1  UNL1        0.4200
     27 F          -2.9718   74.4694   19.3258 F       1  UNL1       -0.1658
     28 F          -2.3861   72.6229   18.1762 F       1  UNL1       -0.1658
     29 F          -2.3688   74.6392   17.1721 F       1  UNL1       -0.1658
     30 C          10.7469   77.8105   27.0565 C.3     1  UNL1        0.1535
     31 C          12.1780   77.8939   26.5999 C.2     1  UNL1        0.2443
     32 O          13.0639   77.2636   27.2385 O.2     1  UNL1       -0.2730
     33 N          12.5405   78.7408   25.4968 N.am    1  UNL1       -0.2825
     34 H          11.8658   79.4852   25.2085 H       1  UNL1        0.1549
     35 C          13.8078   78.6824   24.8206 C.ar    1  UNL1        0.0535
     36 C          14.1501   77.6005   23.9916 C.ar    1  UNL1        0.0353
     37 C          15.3824   77.6002   23.3332 C.ar    1  UNL1        0.1002
     38 N          16.2369   78.6466   23.4834 N.ar    1  UNL1       -0.2422
     39 C          15.9243   79.7144   24.2640 C.ar    1  UNL1        0.1002
     40 C          14.7018   79.7553   24.9388 C.ar    1  UNL1        0.0353
     41 C          10.3342   79.1225   27.7459 C.3     1  UNL1        0.0569
     42 C           9.5367   78.8546   28.9896 C.ar    1  UNL1       -0.0017
     43 C           9.9713   79.0087   30.3029 C.ar    1  UNL1        0.0681
     44 N           8.9617   78.7566   31.1669 N.ar    1  UNL1       -0.3523
     45 C           7.8922   78.4540   30.4106 C.ar    1  UNL1        0.0563
     46 C           6.6074   78.1394   30.8510 C.ar    1  UNL1        0.0170
     47 C           5.6257   77.8734   29.8788 C.ar    1  UNL1        0.0015
     48 C           5.9460   77.9304   28.5039 C.ar    1  UNL1        0.0001
     49 C           7.2508   78.2527   28.0885 C.ar    1  UNL1        0.0012
     50 C           8.2030   78.5070   29.0758 C.ar    1  UNL1        0.0131
     51 H           9.0046   78.8047   32.2092 H       1  UNL1        0.1660
@<TRIPOS>BOND
     1     1     2    2
     2     2     3   am
     3     3    30    1
     4    30    41    1
     5    41    42    1
     6    42    43   ar
     7    43    44   ar
     8    44    45   ar
     9    45    46   ar
    10    46    47   ar
    11    47    48   ar
    12    48    49   ar
    13    49    50   ar
    14    30    31    1
    15    31    32    2
    16    31    33   am
    17    33    35    1
    18    35    36   ar
    19    36    37   ar
    20    37    38   ar
    21    38    39   ar
    22    39    40   ar
    23     2     5    1
    24     5     6   ar
    25     6     7   ar
    26     7     8   ar
    27     8    14    1
    28    14    15    1
    29    15    16    1
    30    16    17    1
    31    17    20    1
    32    20    21   ar
    33    21    22   ar
    34    22    23   ar
    35    23    26    1
    36    26    27    1
    37    26    28    1
    38    26    29    1
    39    23    24   ar
    40    24    25   ar
    41    17    18    1
    42    18    19    1
    43     8     9   ar
    44     9    10    1
    45     9    11   ar
    46    11    12    1
    47    50    42   ar
    48    40    35   ar
    49    11     5   ar
    50    50    45   ar
    51    19    14    1
    52    25    20   ar
    53     3     4    1
    54    44    51    1
    55    33    34    1
    56    10    13    1
@<TRIPOS>MOLECULE
*****
 51 56 0 0 0
SMALL
GASTEIGER

@<TRIPOS>ATOM
      1 O          11.1310   74.6417   24.8953 O.2     1  UNL1       -0.2701
      2 C          10.2367   75.5315   24.9078 C.2     1  UNL1        0.2484
      3 N          10.3127   76.6054   25.8578 N.am    1  UNL1       -0.2945
      4 H           9.7346   77.4610   25.6948 H       1  UNL1        0.1501
      5 C           9.1390   75.4716   23.9172 C.ar    1  UNL1        0.0839
      6 C           7.9769   74.7425   24.2158 C.ar    1  UNL1        0.0082
      7 C           6.9305   74.6675   23.2953 C.ar    1  UNL1        0.0179
      8 C           7.0203   75.3298   22.0645 C.ar    1  UNL1        0.0844
      9 C           8.1731   76.0726   21.7577 C.ar    1  UNL1        0.1748
     10 O           8.2656   76.7240   20.5272 O.3     1  UNL1       -0.5026
     11 C           9.2262   76.1492   22.6849 C.ar    1  UNL1        0.1791
     12 F          10.3071   76.9190   22.3980 F       1  UNL1       -0.2008
     13 H           9.0802   77.2662   20.2652 H       1  UNL1        0.2923
     14 N           5.9355   75.2480   21.1266 N.pl3   1  UNL1       -0.3017
     15 C           5.0706   76.4162   20.9201 C.3     1  UNL1        0.1124
     16 C           4.0347   76.1664   19.8164 C.3     1  UNL1        0.1136
     17 N           3.4033   74.8457   19.9786 N.pl3   1  UNL1       -0.2897
     18 C           4.2304   73.6779   20.3348 C.3     1  UNL1        0.1136
     19 C           5.7215   74.0220   20.3533 C.3     1  UNL1        0.1124
     20 C           2.0141   74.6688   19.6154 C.ar    1  UNL1        0.1318
     21 C           1.2590   75.7211   19.0671 C.ar    1  UNL1        0.0343
     22 C          -0.0794   75.5103   18.7315 C.ar    1  UNL1        0.0083
     23 C          -0.6663   74.2507   18.9196 C.ar    1  UNL1        0.0906
     24 C           0.1117   73.2326   19.4904 C.ar    1  UNL1        0.1041
     25 N           1.4122   73.4617   19.8115 N.ar    1  UNL1       -0.2292
     26 C          -2.1239   74.0250   18.6080 C.3     1  UNL1        0.4200
     27 F          -2.3147   72.7741   18.0468 F       1  UNL1       -0.1658
     28 F          -2.5533   74.9895   17.7159 F       1  UNL1       -0.1658
     29 F          -2.8873   74.1038   19.7600 F       1  UNL1       -0.1658
     30 C          11.2908   76.6083   26.9501 C.3     1  UNL1        0.1535
     31 C          12.5389   77.3287   26.5177 C.2     1  UNL1        0.2443
     32 O          13.5179   77.3904   27.3100 O.2     1  UNL1       -0.2730
     33 N          12.5864   78.0021   25.2489 N.am    1  UNL1       -0.2825
     34 H          11.6805   78.2144   24.7728 H       1  UNL1        0.1549
     35 C          13.7968   78.4761   24.6349 C.ar    1  UNL1        0.0535
     36 C          14.3272   79.7423   24.9357 C.ar    1  UNL1        0.0353
     37 C          15.5211   80.1494   24.3347 C.ar    1  UNL1        0.1002
     38 N          16.1709   79.3196   23.4764 N.ar    1  UNL1       -0.2422
     39 C          15.6907   78.0827   23.1814 C.ar    1  UNL1        0.1002
     40 C          14.5010   77.6361   23.7616 C.ar    1  UNL1        0.0353
     41 C          10.7068   77.2712   28.2097 C.3     1  UNL1        0.0569
     42 C           9.5574   76.4759   28.7582 C.ar    1  UNL1       -0.0017
     43 C           9.3436   75.1097   28.5999 C.ar    1  UNL1        0.0681
     44 N           8.2542   74.7182   29.2992 N.ar    1  UNL1       -0.3523
     45 C           7.7843   75.8229   29.9044 C.ar    1  UNL1        0.0563
     46 C           6.6825   75.9177   30.7534 C.ar    1  UNL1        0.0170
     47 C           6.3781   77.1792   31.2971 C.ar    1  UNL1        0.0015
     48 C           7.1745   78.3039   30.9862 C.ar    1  UNL1        0.0001
     49 C           8.2820   78.1779   30.1280 C.ar    1  UNL1        0.0012
     50 C           8.5559   76.9155   29.6012 C.ar    1  UNL1        0.0131
     51 H           7.8693   73.7497   29.3660 H       1  UNL1        0.1660
@<TRIPOS>BOND
     1     1     2    2
     2     2     3   am
     3     3    30    1
     4    30    41    1
     5    41    42    1
     6    42    43   ar
     7    43    44   ar
     8    44    45   ar
     9    45    46   ar
    10    46    47   ar
    11    47    48   ar
    12    48    49   ar
    13    49    50   ar
    14    30    31    1
    15    31    32    2
    16    31    33   am
    17    33    35    1
    18    35    36   ar
    19    36    37   ar
    20    37    38   ar
    21    38    39   ar
    22    39    40   ar
    23     2     5    1
    24     5     6   ar
    25     6     7   ar
    26     7     8   ar
    27     8    14    1
    28    14    15    1
    29    15    16    1
    30    16    17    1
    31    17    20    1
    32    20    21   ar
    33    21    22   ar
    34    22    23   ar
    35    23    26    1
    36    26    27    1
    37    26    28    1
    38    26    29    1
    39    23    24   ar
    40    24    25   ar
    41    17    18    1
    42    18    19    1
    43     8     9   ar
    44     9    10    1
    45     9    11   ar
    46    11    12    1
    47    50    42   ar
    48    40    35   ar
    49    11     5   ar
    50    50    45   ar
    51    19    14    1
    52    25    20   ar
    53     3     4    1
    54    44    51    1
    55    33    34    1
    56    10    13    1
@<TRIPOS>MOLECULE
*****
 51 56 0 0 0
SMALL
GASTEIGER

@<TRIPOS>ATOM
      1 O           6.7578   74.1082   21.0345 O.2     1  UNL1       -0.2701
      2 C           5.9391   74.7130   21.7799 C.2     1  UNL1        0.2484
      3 N           4.5775   74.8798   21.3560 N.am    1  UNL1       -0.2945
      4 H           3.8580   75.1367   22.0695 H       1  UNL1        0.1501
      5 C           6.3895   75.2125   23.0981 C.ar    1  UNL1        0.0839
      6 C           6.6974   76.5734   23.2537 C.ar    1  UNL1        0.0082
      7 C           7.1288   77.0665   24.4860 C.ar    1  UNL1        0.0179
      8 C           7.2488   76.2117   25.5890 C.ar    1  UNL1        0.0844
      9 C           6.9328   74.8495   25.4498 C.ar    1  UNL1        0.1748
     10 O           7.0620   73.9968   26.5468 O.3     1  UNL1       -0.5026
     11 C           6.4972   74.3531   24.2095 C.ar    1  UNL1        0.1791
     12 F           6.1393   73.0475   24.1069 F       1  UNL1       -0.2008
     13 H           6.8485   73.0083   26.4881 H       1  UNL1        0.2923
     14 N           7.6906   76.7314   26.8530 N.pl3   1  UNL1       -0.3017
     15 C           6.7045   77.0017   27.9065 C.3     1  UNL1        0.1124
     16 C           7.3763   77.4592   29.2077 C.3     1  UNL1        0.1136
     17 N           8.4092   78.4733   28.9366 N.pl3   1  UNL1       -0.2897
     18 C           9.3207   78.3013   27.7902 C.3     1  UNL1        0.1136
     19 C           9.1181   76.9499   27.1009 C.3     1  UNL1        0.1124
     20 C           8.6376   79.5337   29.8939 C.ar    1  UNL1        0.1318
     21 C           9.5931   80.5393   29.6614 C.ar    1  UNL1        0.0343
     22 C           9.7847   81.5442   30.6110 C.ar    1  UNL1        0.0083
     23 C           9.0155   81.5662   31.7833 C.ar    1  UNL1        0.0906
     24 C           8.0890   80.5336   31.9908 C.ar    1  UNL1        0.1041
     25 N           7.9213   79.5642   31.0532 N.ar    1  UNL1       -0.2292
     26 C           9.2483   82.6172   32.8387 C.3     1  UNL1        0.4200
     27 F           9.8048   82.0536   33.9739 F       1  UNL1       -0.1658
     28 F           8.0415   83.2030   33.1716 F       1  UNL1       -0.1658
     29 F          10.1110   83.5942   32.3728 F       1  UNL1       -0.1658
     30 C           4.1400   74.5420   19.9978 C.3     1  UNL1        0.1535
     31 C           2.6994   74.1086   20.0170 C.2     1  UNL1        0.2443
     32 O           2.2931   73.3692   20.9541 O.2     1  UNL1       -0.2730
     33 N           1.8175   74.4703   18.9414 N.am    1  UNL1       -0.2825
     34 H           2.2459   74.7873   18.0423 H       1  UNL1        0.1549
     35 C           0.3866   74.3429   18.9972 C.ar    1  UNL1        0.0535
     36 C          -0.4383   75.4400   19.2988 C.ar    1  UNL1        0.0353
     37 C          -1.8256   75.2747   19.3149 C.ar    1  UNL1        0.1002
     38 N          -2.3722   74.0641   19.0266 N.ar    1  UNL1       -0.2422
     39 C          -1.5996   72.9906   18.7135 C.ar    1  UNL1        0.1002
     40 C          -0.2083   73.1131   18.6847 C.ar    1  UNL1        0.0353
     41 C           4.3198   75.7393   19.0485 C.3     1  UNL1        0.0569
     42 C           4.3994   77.0299   19.8116 C.ar    1  UNL1       -0.0017
     43 C           5.4356   77.9580   19.7659 C.ar    1  UNL1        0.0681
     44 N           5.1330   79.0409   20.5176 N.ar    1  UNL1       -0.3523
     45 C           3.9117   78.8085   21.0294 C.ar    1  UNL1        0.0563
     46 C           3.1674   79.6497   21.8552 C.ar    1  UNL1        0.0170
     47 C           1.8930   79.2130   22.2614 C.ar    1  UNL1        0.0015
     48 C           1.3959   77.9611   21.8353 C.ar    1  UNL1        0.0001
     49 C           2.1686   77.1339   21.0001 C.ar    1  UNL1        0.0012
     50 C           3.4295   77.5924   20.6178 C.ar    1  UNL1        0.0131
     51 H           5.7243   79.8905   20.6560 H       1  UNL1        0.1660
@<TRIPOS>BOND
     1     1     2    2
     2     2     3   am
     3     3    30    1
     4    30    41    1
     5    41    42    1
     6    42    43   ar
     7    43    44   ar
     8    44    45   ar
     9    45    46   ar
    10    46    47   ar
    11    47    48   ar
    12    48    49   ar
    13    49    50   ar
    14    30    31    1
    15    31    32    2
    16    31    33   am
    17    33    35    1
    18    35    36   ar
    19    36    37   ar
    20    37    38   ar
    21    38    39   ar
    22    39    40   ar
    23     2     5    1
    24     5     6   ar
    25     6     7   ar
    26     7     8   ar
    27     8    14    1
    28    14    15    1
    29    15    16    1
    30    16    17    1
    31    17    20    1
    32    20    21   ar
    33    21    22   ar
    34    22    23   ar
    35    23    26    1
    36    26    27    1
    37    26    28    1
    38    26    29    1
    39    23    24   ar
    40    24    25   ar
    41    17    18    1
    42    18    19    1
    43     8     9   ar
    44     9    10    1
    45     9    11   ar
    46    11    12    1
    47    50    42   ar
    48    40    35   ar
    49    11     5   ar
    50    50    45   ar
    51    19    14    1
    52    25    20   ar
    53     3     4    1
    54    44    51    1
    55    33    34    1
    56    10    13    1
@<TRIPOS>MOLECULE
*****
 51 56 0 0 0
SMALL
GASTEIGER

@<TRIPOS>ATOM
      1 O           6.3271   73.1272   22.2130 O.2     1  UNL1       -0.2701
      2 C           5.8874   74.2651   22.5350 C.2     1  UNL1        0.2484
      3 N           4.7533   74.8126   21.8453 N.am    1  UNL1       -0.2945
      4 H           4.2404   75.6130   22.2800 H       1  UNL1        0.1501
      5 C           6.5293   75.0041   23.6448 C.ar    1  UNL1        0.0839
      6 C           7.8858   74.7816   23.9306 C.ar    1  UNL1        0.0082
      7 C           8.5114   75.4633   24.9755 C.ar    1  UNL1        0.0179
      8 C           7.7971   76.3891   25.7463 C.ar    1  UNL1        0.0844
      9 C           6.4418   76.6297   25.4634 C.ar    1  UNL1        0.1748
     10 O           5.7283   77.5451   26.2381 O.3     1  UNL1       -0.5026
     11 C           5.8119   75.9445   24.4106 C.ar    1  UNL1        0.1791
     12 F           4.5190   76.2318   24.1125 F       1  UNL1       -0.2008
     13 H           4.7495   77.7446   26.0702 H       1  UNL1        0.2923
     14 N           8.4527   77.0869   26.8169 N.pl3   1  UNL1       -0.3017
     15 C           8.1728   76.7036   28.2062 C.3     1  UNL1        0.1124
     16 C           9.0359   77.4951   29.1973 C.3     1  UNL1        0.1136
     17 N           9.0501   78.9271   28.8538 N.pl3   1  UNL1       -0.2897
     18 C           9.1798   79.3403   27.4441 C.3     1  UNL1        0.1136
     19 C           9.4235   78.1438   26.5214 C.3     1  UNL1        0.1124
     20 C           9.1157   79.9142   29.9094 C.ar    1  UNL1        0.1318
     21 C           9.8247   81.1179   29.7459 C.ar    1  UNL1        0.0343
     22 C           9.8654   82.0439   30.7894 C.ar    1  UNL1        0.0083
     23 C           9.1868   81.7881   31.9895 C.ar    1  UNL1        0.0906
     24 C           8.5101   80.5667   32.1241 C.ar    1  UNL1        0.1041
     25 N           8.4861   79.6791   31.0953 N.ar    1  UNL1       -0.2292
     26 C           9.2651   82.7574   33.1414 C.3     1  UNL1        0.4200
     27 F           9.6538   82.1077   34.3002 F       1  UNL1       -0.1658
     28 F           8.0226   83.3292   33.3404 F       1  UNL1       -0.1658
     29 F          10.1848   83.7574   32.8764 F       1  UNL1       -0.1658
     30 C           4.1973   74.1832   20.6433 C.3     1  UNL1        0.1535
     31 C           2.7209   74.4595   20.5572 C.2     1  UNL1        0.2443
     32 O           2.2390   75.4291   21.2035 O.2     1  UNL1       -0.2730
     33 N           1.8604   73.5846   19.8092 N.am    1  UNL1       -0.2825
     34 H           2.2190   72.6327   19.5690 H       1  UNL1        0.1549
     35 C           0.5076   73.9061   19.4442 C.ar    1  UNL1        0.0535
     36 C           0.0492   75.2343   19.4158 C.ar    1  UNL1        0.0353
     37 C          -1.2665   75.5007   19.0284 C.ar    1  UNL1        0.1002
     38 N          -2.0916   74.4825   18.6681 N.ar    1  UNL1       -0.2422
     39 C          -1.6697   73.1904   18.6685 C.ar    1  UNL1        0.1002
     40 C          -0.3614   72.8805   19.0478 C.ar    1  UNL1        0.0353
     41 C           4.9059   74.6944   19.3770 C.3     1  UNL1        0.0569
     42 C           4.9671   76.1945   19.3573 C.ar    1  UNL1       -0.0017
     43 C           4.0004   77.0575   18.8493 C.ar    1  UNL1        0.0681
     44 N           4.3508   78.3442   19.0751 N.ar    1  UNL1       -0.3523
     45 C           5.5247   78.3004   19.7288 C.ar    1  UNL1        0.0563
     46 C           6.2735   79.3804   20.1944 C.ar    1  UNL1        0.0170
     47 C           7.4728   79.1037   20.8762 C.ar    1  UNL1        0.0015
     48 C           7.8901   77.7690   21.0778 C.ar    1  UNL1        0.0001
     49 C           7.1129   76.6989   20.5987 C.ar    1  UNL1        0.0012
     50 C           5.9314   77.0051   19.9229 C.ar    1  UNL1        0.0131
     51 H           3.8080   79.1955   18.8085 H       1  UNL1        0.1660
@<TRIPOS>BOND
     1     1     2    2
     2     2     3   am
     3     3    30    1
     4    30    41    1
     5    41    42    1
     6    42    43   ar
     7    43    44   ar
     8    44    45   ar
     9    45    46   ar
    10    46    47   ar
    11    47    48   ar
    12    48    49   ar
    13    49    50   ar
    14    30    31    1
    15    31    32    2
    16    31    33   am
    17    33    35    1
    18    35    36   ar
    19    36    37   ar
    20    37    38   ar
    21    38    39   ar
    22    39    40   ar
    23     2     5    1
    24     5     6   ar
    25     6     7   ar
    26     7     8   ar
    27     8    14    1
    28    14    15    1
    29    15    16    1
    30    16    17    1
    31    17    20    1
    32    20    21   ar
    33    21    22   ar
    34    22    23   ar
    35    23    26    1
    36    26    27    1
    37    26    28    1
    38    26    29    1
    39    23    24   ar
    40    24    25   ar
    41    17    18    1
    42    18    19    1
    43     8     9   ar
    44     9    10    1
    45     9    11   ar
    46    11    12    1
    47    50    42   ar
    48    40    35   ar
    49    11     5   ar
    50    50    45   ar
    51    19    14    1
    52    25    20   ar
    53     3     4    1
    54    44    51    1
    55    33    34    1
    56    10    13    1
@<TRIPOS>MOLECULE
*****
 51 56 0 0 0
SMALL
GASTEIGER

@<TRIPOS>ATOM
      1 O           7.7185   75.2823   25.8744 O.2     1  UNL1       -0.2701
      2 C           7.9019   76.0168   24.8652 C.2     1  UNL1        0.2484
      3 N           7.1705   75.7628   23.6560 N.am    1  UNL1       -0.2945
      4 H           7.1264   76.5131   22.9295 H       1  UNL1        0.1501
      5 C           8.8463   77.1526   24.9558 C.ar    1  UNL1        0.0839
      6 C           9.6696   77.2790   26.0860 C.ar    1  UNL1        0.0082
      7 C          10.5644   78.3444   26.1959 C.ar    1  UNL1        0.0179
      8 C          10.6624   79.2964   25.1733 C.ar    1  UNL1        0.0844
      9 C           9.8523   79.1752   24.0315 C.ar    1  UNL1        0.1748
     10 O           9.9437   80.1296   23.0176 O.3     1  UNL1       -0.5026
     11 C           8.9522   78.1019   23.9200 C.ar    1  UNL1        0.1791
     12 F           8.2198   77.9663   22.7849 F       1  UNL1       -0.2008
     13 H           9.3753   80.0815   22.1805 H       1  UNL1        0.2923
     14 N          11.5893   80.3866   25.2963 N.pl3   1  UNL1       -0.3017
     15 C          11.0903   81.7221   25.6466 C.3     1  UNL1        0.1124
     16 C          12.2361   82.7268   25.8240 C.3     1  UNL1        0.1136
     17 N          13.2127   82.6079   24.7280 N.pl3   1  UNL1       -0.2897
     18 C          13.6206   81.2727   24.2530 C.3     1  UNL1        0.1136
     19 C          13.0249   80.1566   25.1142 C.3     1  UNL1        0.1124
     20 C          13.8949   83.7898   24.2479 C.ar    1  UNL1        0.1318
     21 C          13.9441   84.9700   25.0114 C.ar    1  UNL1        0.0343
     22 C          14.6110   86.0897   24.5118 C.ar    1  UNL1        0.0083
     23 C          15.2481   86.0356   23.2637 C.ar    1  UNL1        0.0906
     24 C          15.1575   84.8490   22.5212 C.ar    1  UNL1        0.1041
     25 N          14.5006   83.7721   23.0270 N.ar    1  UNL1       -0.2292
     26 C          15.9282   87.2534   22.6918 C.3     1  UNL1        0.4200
     27 F          16.2832   87.0388   21.3712 F       1  UNL1       -0.1658
     28 F          17.0671   87.5257   23.4260 F       1  UNL1       -0.1658
     29 F          15.0864   88.3511   22.7410 F       1  UNL1       -0.1658
     30 C           6.3530   74.5581   23.4815 C.3     1  UNL1        0.1535
     31 C           5.1532   74.8727   22.6299 C.2     1  UNL1        0.2443
     32 O           4.2456   75.6128   23.0973 O.2     1  UNL1       -0.2730
     33 N           5.0082   74.2763   21.3303 N.am    1  UNL1       -0.2825
     34 H           5.5865   73.4339   21.1107 H       1  UNL1        0.1549
     35 C           4.0572   74.7153   20.3456 C.ar    1  UNL1        0.0535
     36 C           2.6771   74.5088   20.5124 C.ar    1  UNL1        0.0353
     37 C           1.7883   74.9773   19.5415 C.ar    1  UNL1        0.1002
     38 N           2.2559   75.6404   18.4510 N.ar    1  UNL1       -0.2422
     39 C           3.5836   75.8705   18.2730 C.ar    1  UNL1        0.1002
     40 C           4.5061   75.4201   19.2205 C.ar    1  UNL1        0.0353
     41 C           7.1734   73.4247   22.8416 C.3     1  UNL1        0.0569
     42 C           8.4268   73.9539   22.2065 C.ar    1  UNL1       -0.0017
     43 C           8.5651   75.1573   21.5210 C.ar    1  UNL1        0.0681
     44 N           9.8537   75.3481   21.1572 N.ar    1  UNL1       -0.3523
     45 C          10.5309   74.2807   21.6150 C.ar    1  UNL1        0.0563
     46 C          11.8986   74.0350   21.5008 C.ar    1  UNL1        0.0170
     47 C          12.4047   72.8547   22.0754 C.ar    1  UNL1        0.0015
     48 C          11.5430   71.9584   22.7462 C.ar    1  UNL1        0.0001
     49 C          10.1671   72.2334   22.8478 C.ar    1  UNL1        0.0012
     50 C           9.6945   73.4093   22.2644 C.ar    1  UNL1        0.0131
     51 H          10.2422   76.1680   20.6401 H       1  UNL1        0.1660
@<TRIPOS>BOND
     1     1     2    2
     2     2     3   am
     3     3    30    1
     4    30    41    1
     5    41    42    1
     6    42    43   ar
     7    43    44   ar
     8    44    45   ar
     9    45    46   ar
    10    46    47   ar
    11    47    48   ar
    12    48    49   ar
    13    49    50   ar
    14    30    31    1
    15    31    32    2
    16    31    33   am
    17    33    35    1
    18    35    36   ar
    19    36    37   ar
    20    37    38   ar
    21    38    39   ar
    22    39    40   ar
    23     2     5    1
    24     5     6   ar
    25     6     7   ar
    26     7     8   ar
    27     8    14    1
    28    14    15    1
    29    15    16    1
    30    16    17    1
    31    17    20    1
    32    20    21   ar
    33    21    22   ar
    34    22    23   ar
    35    23    26    1
    36    26    27    1
    37    26    28    1
    38    26    29    1
    39    23    24   ar
    40    24    25   ar
    41    17    18    1
    42    18    19    1
    43     8     9   ar
    44     9    10    1
    45     9    11   ar
    46    11    12    1
    47    50    42   ar
    48    40    35   ar
    49    11     5   ar
    50    50    45   ar
    51    19    14    1
    52    25    20   ar
    53     3     4    1
    54    44    51    1
    55    33    34    1
    56    10    13    1
@<TRIPOS>MOLECULE
*****
 51 56 0 0 0
SMALL
GASTEIGER

@<TRIPOS>ATOM
      1 O           8.0035   75.0193   25.1305 O.2     1  UNL1       -0.2701
      2 C           8.1930   75.8638   24.2125 C.2     1  UNL1        0.2484
      3 N           7.4954   75.7293   22.9648 N.am    1  UNL1       -0.2945
      4 H           7.4508   76.5539   22.3238 H       1  UNL1        0.1501
      5 C           9.1087   77.0017   24.4506 C.ar    1  UNL1        0.0839
      6 C           8.7986   78.2625   23.9165 C.ar    1  UNL1        0.0082
      7 C           9.6495   79.3492   24.1236 C.ar    1  UNL1        0.0179
      8 C          10.8196   79.1997   24.8787 C.ar    1  UNL1        0.0844
      9 C          11.1359   77.9458   25.4287 C.ar    1  UNL1        0.1748
     10 O          12.3069   77.7955   26.1726 O.3     1  UNL1       -0.5026
     11 C          10.2788   76.8518   25.2213 C.ar    1  UNL1        0.1791
     12 F          10.5681   75.6625   25.8087 F       1  UNL1       -0.2008
     13 H          12.5737   76.9086   26.5827 H       1  UNL1        0.2923
     14 N          11.6857   80.3262   25.0878 N.pl3   1  UNL1       -0.3017
     15 C          11.1014   81.6426   25.3726 C.3     1  UNL1        0.1124
     16 C          12.1826   82.6926   25.6593 C.3     1  UNL1        0.1136
     17 N          13.2719   82.6072   24.6718 N.pl3   1  UNL1       -0.2897
     18 C          13.7787   81.2870   24.2535 C.3     1  UNL1        0.1136
     19 C          13.1403   80.1523   25.0579 C.3     1  UNL1        0.1124
     20 C          13.9541   83.8130   24.2550 C.ar    1  UNL1        0.1318
     21 C          13.9767   84.9615   25.0664 C.ar    1  UNL1        0.0343
     22 C          14.6445   86.1057   24.6271 C.ar    1  UNL1        0.0083
     23 C          15.3086   86.1074   23.3921 C.ar    1  UNL1        0.0906
     24 C          15.2442   84.9512   22.6004 C.ar    1  UNL1        0.1041
     25 N          14.5860   83.8496   23.0478 N.ar    1  UNL1       -0.2292
     26 C          15.9903   87.3526   22.8848 C.3     1  UNL1        0.4200
     27 F          15.3237   88.4852   23.3196 F       1  UNL1       -0.1658
     28 F          15.9975   87.3366   21.5027 F       1  UNL1       -0.1658
     29 F          17.2952   87.4157   23.3423 F       1  UNL1       -0.1658
     30 C           6.7101   74.5348   22.6390 C.3     1  UNL1        0.1535
     31 C           5.2840   74.9214   22.3555 C.2     1  UNL1        0.2443
     32 O           4.4687   74.0330   21.9866 O.2     1  UNL1       -0.2730
     33 N           4.8755   76.2972   22.4310 N.am    1  UNL1       -0.2825
     34 H           5.6195   77.0309   22.4109 H       1  UNL1        0.1549
     35 C           3.5044   76.7293   22.4475 C.ar    1  UNL1        0.0535
     36 C           2.9239   77.2908   23.5977 C.ar    1  UNL1        0.0353
     37 C           1.5953   77.7215   23.5584 C.ar    1  UNL1        0.1002
     38 N           0.8753   77.6105   22.4109 N.ar    1  UNL1       -0.2422
     39 C           1.4166   77.0885   21.2787 C.ar    1  UNL1        0.1002
     40 C           2.7419   76.6472   21.2745 C.ar    1  UNL1        0.0353
     41 C           7.3085   73.7963   21.4292 C.3     1  UNL1        0.0569
     42 C           8.4480   72.9106   21.8433 C.ar    1  UNL1       -0.0017
     43 C           8.4187   71.5245   21.9672 C.ar    1  UNL1        0.0681
     44 N           9.6472   71.0523   22.2787 N.ar    1  UNL1       -0.3523
     45 C          10.4528   72.1266   22.3434 C.ar    1  UNL1        0.0563
     46 C          11.8202   72.1424   22.6153 C.ar    1  UNL1        0.0170
     47 C          12.4766   73.3869   22.6132 C.ar    1  UNL1        0.0015
     48 C          11.7604   74.5735   22.3393 C.ar    1  UNL1        0.0001
     49 C          10.3813   74.5270   22.0661 C.ar    1  UNL1        0.0012
     50 C           9.7577   73.2790   22.0797 C.ar    1  UNL1        0.0131
     51 H           9.9145   70.0531   22.4225 H       1  UNL1        0.1660
@<TRIPOS>BOND
     1     1     2    2
     2     2     3   am
     3     3    30    1
     4    30    41    1
     5    41    42    1
     6    42    43   ar
     7    43    44   ar
     8    44    45   ar
     9    45    46   ar
    10    46    47   ar
    11    47    48   ar
    12    48    49   ar
    13    49    50   ar
    14    30    31    1
    15    31    32    2
    16    31    33   am
    17    33    35    1
    18    35    36   ar
    19    36    37   ar
    20    37    38   ar
    21    38    39   ar
    22    39    40   ar
    23     2     5    1
    24     5     6   ar
    25     6     7   ar
    26     7     8   ar
    27     8    14    1
    28    14    15    1
    29    15    16    1
    30    16    17    1
    31    17    20    1
    32    20    21   ar
    33    21    22   ar
    34    22    23   ar
    35    23    26    1
    36    26    27    1
    37    26    28    1
    38    26    29    1
    39    23    24   ar
    40    24    25   ar
    41    17    18    1
    42    18    19    1
    43     8     9   ar
    44     9    10    1
    45     9    11   ar
    46    11    12    1
    47    50    42   ar
    48    40    35   ar
    49    11     5   ar
    50    50    45   ar
    51    19    14    1
    52    25    20   ar
    53     3     4    1
    54    44    51    1
    55    33    34    1
    56    10    13    1
