@<TRIPOS>MOLECULE
*****
 46 51 0 0 0
SMALL
GASTEIGER

@<TRIPOS>ATOM
      1 C          59.4294   89.0865    5.8014 C.ar    1  UNL1        0.0702
      2 C          58.2406   89.7151    5.4130 C.ar    1  UNL1        0.0191
      3 C          58.2280   90.5869    4.3233 C.ar    1  UNL1        0.0356
      4 C          59.4147   90.8220    3.6077 C.ar    1  UNL1        0.1318
      5 N          60.5531   90.1765    3.9883 N.ar    1  UNL1       -0.2279
      6 C          60.5894   89.3260    5.0478 C.ar    1  UNL1        0.1149
      7 N          59.4436   91.7167    2.4737 N.pl3   1  UNL1       -0.2932
      8 C          59.2265   91.1850    1.1194 C.3     1  UNL1        0.0923
      9 C          58.5141   92.2273    0.2518 C.3     1  UNL1        0.0252
     10 C          59.2763   93.5789    0.1859 C.3     1  UNL1        0.0472
     11 C          60.2955   93.7509    1.3380 C.3     1  UNL1        0.0252
     12 C          59.7901   93.1378    2.6483 C.3     1  UNL1        0.0923
     13 C          59.9665   93.7564   -1.1767 C.3     1  UNL1        0.2054
     14 O          61.0371   92.8227   -1.3067 O.3     1  UNL1       -0.4755
     15 C          62.3669   93.0844   -0.9459 C.ar    1  UNL1        0.1388
     16 C          63.3088   93.5963   -1.8573 C.ar    1  UNL1        0.0369
     17 C          64.6215   93.8388   -1.4478 C.ar    1  UNL1        0.0033
     18 C          65.0084   93.5753   -0.1318 C.ar    1  UNL1        0.0066
     19 C          64.0809   93.0639    0.7927 C.ar    1  UNL1        0.0785
     20 C          62.7607   92.8224    0.3724 C.ar    1  UNL1        0.0433
     21 C          64.4838   92.7823    2.1884 C.2     1  UNL1        0.3381
     22 O          65.5921   93.1924    2.6284 O.2     1  UNL1       -0.2451
     23 O          63.6415   92.0607    3.0305 O.3     1  UNL1       -0.4771
     24 H          63.9078   91.8625    3.9875 H       1  UNL1        0.2954
     25 C          60.5041   88.0432    7.8472 C.2     1  UNL1        0.2839
     26 O          61.3004   89.0031    8.0286 O.2     1  UNL1       -0.2665
     27 N          59.4229   88.1728    6.9118 N.am    1  UNL1       -0.2766
     28 H          58.5429   87.6452    7.1096 H       1  UNL1        0.1553
     29 C          60.0469   83.5794   10.0755 C.ar    1  UNL1        0.1413
     30 C          60.7930   83.0236   11.1517 C.ar    1  UNL1        0.0342
     31 C          61.8293   83.7863   11.7504 C.ar    1  UNL1        0.0061
     32 C          62.1410   85.0725   11.2823 C.ar    1  UNL1        0.0377
     33 C          61.4103   85.5736   10.2120 C.ar    1  UNL1        0.1481
     34 O          61.5465   86.7451    9.6417 O.2     1  UNL1       -0.4491
     35 C          60.6481   86.8358    8.6788 C.ar    1  UNL1        0.1947
     36 C          59.9077   85.6498    8.6006 C.ar    1  UNL1        0.0231
     37 C          58.8237   85.2991    7.6243 C.3     1  UNL1        0.0346
     38 C          60.4071   84.8531    9.6177 C.ar    1  UNL1        0.0676
     39 C          60.5382   81.6465   11.6365 C.ar    1  UNL1        0.0029
     40 C          61.2720   80.5643   11.1190 C.ar    1  UNL1        0.0001
     41 C          61.0313   79.2650   11.5764 C.ar    1  UNL1        0.0000
     42 C          60.0545   79.0339   12.5482 C.ar    1  UNL1        0.0000
     43 C          59.3144   80.1013   13.0627 C.ar    1  UNL1        0.0000
     44 C          59.5513   81.4022   12.6085 C.ar    1  UNL1        0.0001
     45 C          57.7335   82.7307   10.1623 C.3     1  UNL1        0.2525
     46 O          58.9755   82.9001    9.4896 O.3     1  UNL1       -0.4713
@<TRIPOS>BOND
     1    45    46    1
     2    46    29    1
     3    29    30   ar
     4    30    39    1
     5    39    40   ar
     6    40    41   ar
     7    41    42   ar
     8    42    43   ar
     9    43    44   ar
    10    30    31   ar
    11    31    32   ar
    12    32    33   ar
    13    33    34   ar
    14    34    35   ar
    15    35    25    1
    16    25    26    2
    17    25    27   am
    18    27     1    1
    19     1     2   ar
    20     2     3   ar
    21     3     4   ar
    22     4     7    1
    23     7     8    1
    24     8     9    1
    25     9    10    1
    26    10    13    1
    27    13    14    1
    28    14    15    1
    29    15    16   ar
    30    16    17   ar
    31    17    18   ar
    32    18    19   ar
    33    19    21    1
    34    21    22    2
    35    21    23    1
    36    19    20   ar
    37    10    11    1
    38    11    12    1
    39     4     5   ar
    40     5     6   ar
    41    35    36   ar
    42    36    37    1
    43    36    38   ar
    44    38    29   ar
    45    44    39   ar
    46    38    33   ar
    47     6     1   ar
    48    12     7    1
    49    20    15   ar
    50    27    28    1
    51    23    24    1
@<TRIPOS>MOLECULE
*****
 46 51 0 0 0
SMALL
GASTEIGER

@<TRIPOS>ATOM
      1 C          59.8754   87.5057    7.7577 C.ar    1  UNL1        0.0702
      2 C          60.4611   87.3943    9.0241 C.ar    1  UNL1        0.0191
      3 C          60.1919   86.2874    9.8301 C.ar    1  UNL1        0.0356
      4 C          59.3377   85.2756    9.3584 C.ar    1  UNL1        0.1318
      5 N          58.8019   85.3935    8.1108 N.ar    1  UNL1       -0.2279
      6 C          59.0476   86.4639    7.3100 C.ar    1  UNL1        0.1149
      7 N          59.0341   84.1136   10.1615 N.pl3   1  UNL1       -0.2932
      8 C          59.7290   83.9103   11.4420 C.3     1  UNL1        0.0923
      9 C          58.8009   83.2110   12.4402 C.3     1  UNL1        0.0252
     10 C          58.2476   81.8619   11.9053 C.3     1  UNL1        0.0472
     11 C          58.3523   81.7374   10.3661 C.3     1  UNL1        0.0252
     12 C          58.1123   83.0780    9.6637 C.3     1  UNL1        0.0923
     13 C          58.9389   80.6721   12.5917 C.3     1  UNL1        0.2054
     14 O          59.9081   80.0992   11.7158 O.3     1  UNL1       -0.4755
     15 C          61.2165   80.5790   11.5567 C.ar    1  UNL1        0.1388
     16 C          61.8361   80.6760   10.2971 C.ar    1  UNL1        0.0369
     17 C          63.1417   81.1600   10.1928 C.ar    1  UNL1        0.0033
     18 C          63.8410   81.5509   11.3370 C.ar    1  UNL1        0.0066
     19 C          63.2378   81.4612   12.6038 C.ar    1  UNL1        0.0785
     20 C          61.9225   80.9727   12.7003 C.ar    1  UNL1        0.0433
     21 C          63.9728   81.8733   13.8201 C.2     1  UNL1        0.3381
     22 O          64.6575   82.9322   13.8246 O.2     1  UNL1       -0.2451
     23 O          63.9150   81.0946   14.9732 O.3     1  UNL1       -0.4771
     24 H          64.4143   81.3677   15.8112 H       1  UNL1        0.2954
     25 C          59.2538   89.2238    5.9998 C.2     1  UNL1        0.2839
     26 O          58.0134   89.0829    6.1725 O.2     1  UNL1       -0.2665
     27 N          60.1800   88.6404    6.9285 N.am    1  UNL1       -0.2766
     28 H          61.0898   89.1312    7.0813 H       1  UNL1        0.1553
     29 C          61.7646   91.3714    2.2337 C.ar    1  UNL1        0.1413
     30 C          61.4645   92.5548    1.5034 C.ar    1  UNL1        0.0342
     31 C          60.3081   93.3069    1.8369 C.ar    1  UNL1        0.0061
     32 C          59.4466   92.8884    2.8632 C.ar    1  UNL1        0.0377
     33 C          59.7554   91.7134    3.5376 C.ar    1  UNL1        0.1481
     34 O          59.0839   91.1668    4.5206 O.2     1  UNL1       -0.4491
     35 C          59.7233   90.0732    4.8915 C.ar    1  UNL1        0.1947
     36 C          60.8549   89.8838    4.0885 C.ar    1  UNL1        0.0231
     37 C          61.8363   88.7495    4.1264 C.3     1  UNL1        0.0346
     38 C          60.8656   90.9708    3.2302 C.ar    1  UNL1        0.0676
     39 C          62.3130   92.9993    0.3726 C.ar    1  UNL1        0.0029
     40 C          63.6360   93.4187    0.5994 C.ar    1  UNL1        0.0001
     41 C          64.4364   93.8381   -0.4677 C.ar    1  UNL1        0.0000
     42 C          63.9231   93.8479   -1.7671 C.ar    1  UNL1        0.0000
     43 C          62.6074   93.4408   -2.0018 C.ar    1  UNL1        0.0000
     44 C          61.8032   93.0206   -0.9381 C.ar    1  UNL1        0.0001
     45 C          64.2090   91.0857    2.3846 C.3     1  UNL1        0.2525
     46 O          62.9215   90.6261    1.9913 O.3     1  UNL1       -0.4713
@<TRIPOS>BOND
     1    45    46    1
     2    46    29    1
     3    29    30   ar
     4    30    39    1
     5    39    40   ar
     6    40    41   ar
     7    41    42   ar
     8    42    43   ar
     9    43    44   ar
    10    30    31   ar
    11    31    32   ar
    12    32    33   ar
    13    33    34   ar
    14    34    35   ar
    15    35    25    1
    16    25    26    2
    17    25    27   am
    18    27     1    1
    19     1     2   ar
    20     2     3   ar
    21     3     4   ar
    22     4     7    1
    23     7     8    1
    24     8     9    1
    25     9    10    1
    26    10    13    1
    27    13    14    1
    28    14    15    1
    29    15    16   ar
    30    16    17   ar
    31    17    18   ar
    32    18    19   ar
    33    19    21    1
    34    21    22    2
    35    21    23    1
    36    19    20   ar
    37    10    11    1
    38    11    12    1
    39     4     5   ar
    40     5     6   ar
    41    35    36   ar
    42    36    37    1
    43    36    38   ar
    44    38    29   ar
    45    44    39   ar
    46    38    33   ar
    47     6     1   ar
    48    12     7    1
    49    20    15   ar
    50    27    28    1
    51    23    24    1
@<TRIPOS>MOLECULE
*****
 46 51 0 0 0
SMALL
GASTEIGER

@<TRIPOS>ATOM
      1 C          59.7585   89.0828    5.7311 C.ar    1  UNL1        0.0702
      2 C          58.5189   89.6212    5.3664 C.ar    1  UNL1        0.0191
      3 C          58.4232   90.5031    4.2891 C.ar    1  UNL1        0.0356
      4 C          59.5780   90.8395    3.5617 C.ar    1  UNL1        0.1318
      5 N          60.7685   90.2803    3.9189 N.ar    1  UNL1       -0.2279
      6 C          60.8858   89.4219    4.9661 C.ar    1  UNL1        0.1149
      7 N          59.5213   91.7480    2.4399 N.pl3   1  UNL1       -0.2932
      8 C          59.2522   91.2258    1.0912 C.3     1  UNL1        0.0923
      9 C          58.4645   92.2551    0.2748 C.3     1  UNL1        0.0252
     10 C          59.1799   93.6310    0.1887 C.3     1  UNL1        0.0472
     11 C          60.2505   93.8215    1.2901 C.3     1  UNL1        0.0252
     12 C          59.8317   93.1772    2.6158 C.3     1  UNL1        0.0923
     13 C          59.7940   93.8464   -1.2046 C.3     1  UNL1        0.2054
     14 O          60.8430   92.9055   -1.4262 O.3     1  UNL1       -0.4755
     15 C          62.1847   93.1149   -1.0752 C.ar    1  UNL1        0.1388
     16 C          63.1234   93.6558   -1.9731 C.ar    1  UNL1        0.0369
     17 C          64.4482   93.8438   -1.5742 C.ar    1  UNL1        0.0033
     18 C          64.8505   93.4966   -0.2824 C.ar    1  UNL1        0.0066
     19 C          63.9263   92.9551    0.6282 C.ar    1  UNL1        0.0785
     20 C          62.5938   92.7690    0.2187 C.ar    1  UNL1        0.0433
     21 C          64.3456   92.5849    1.9981 C.2     1  UNL1        0.3381
     22 O          65.5114   92.8455    2.4017 O.2     1  UNL1       -0.2451
     23 O          63.4551   91.9444    2.8560 O.3     1  UNL1       -0.4771
     24 H          63.7319   91.6867    3.7958 H       1  UNL1        0.2954
     25 C          60.9582   88.0728    7.7233 C.2     1  UNL1        0.2839
     26 O          61.7107   89.0701    7.8890 O.2     1  UNL1       -0.2665
     27 N          59.8387   88.1573    6.8287 N.am    1  UNL1       -0.2766
     28 H          58.9944   87.5830    7.0508 H       1  UNL1        0.1553
     29 C          62.0579   84.7466   11.3048 C.ar    1  UNL1        0.1413
     30 C          62.0784   83.3254   11.2458 C.ar    1  UNL1        0.0342
     31 C          61.7680   82.6726   10.0244 C.ar    1  UNL1        0.0061
     32 C          61.4219   83.4090    8.8806 C.ar    1  UNL1        0.0377
     33 C          61.3854   84.7944    8.9812 C.ar    1  UNL1        0.1481
     34 O          61.0935   85.6481    8.0314 O.2     1  UNL1       -0.4491
     35 C          61.1935   86.8649    8.5332 C.ar    1  UNL1        0.1947
     36 C          61.5413   86.7977    9.8881 C.ar    1  UNL1        0.0231
     37 C          61.7116   87.9311   10.8563 C.3     1  UNL1        0.0346
     38 C          61.6792   85.4448   10.1512 C.ar    1  UNL1        0.0676
     39 C          62.3782   82.5079   12.4451 C.ar    1  UNL1        0.0029
     40 C          63.6369   82.5936   13.0663 C.ar    1  UNL1        0.0001
     41 C          63.9196   81.8221   14.1978 C.ar    1  UNL1        0.0000
     42 C          62.9529   80.9561   14.7150 C.ar    1  UNL1        0.0000
     43 C          61.7022   80.8579   14.1002 C.ar    1  UNL1        0.0000
     44 C          61.4147   81.6271   12.9686 C.ar    1  UNL1        0.0001
     45 C          61.7675   85.2171   13.7078 C.3     1  UNL1        0.2525
     46 O          62.4153   85.4441   12.4618 O.3     1  UNL1       -0.4713
@<TRIPOS>BOND
     1    45    46    1
     2    46    29    1
     3    29    30   ar
     4    30    39    1
     5    39    40   ar
     6    40    41   ar
     7    41    42   ar
     8    42    43   ar
     9    43    44   ar
    10    30    31   ar
    11    31    32   ar
    12    32    33   ar
    13    33    34   ar
    14    34    35   ar
    15    35    25    1
    16    25    26    2
    17    25    27   am
    18    27     1    1
    19     1     2   ar
    20     2     3   ar
    21     3     4   ar
    22     4     7    1
    23     7     8    1
    24     8     9    1
    25     9    10    1
    26    10    13    1
    27    13    14    1
    28    14    15    1
    29    15    16   ar
    30    16    17   ar
    31    17    18   ar
    32    18    19   ar
    33    19    21    1
    34    21    22    2
    35    21    23    1
    36    19    20   ar
    37    10    11    1
    38    11    12    1
    39     4     5   ar
    40     5     6   ar
    41    35    36   ar
    42    36    37    1
    43    36    38   ar
    44    38    29   ar
    45    44    39   ar
    46    38    33   ar
    47     6     1   ar
    48    12     7    1
    49    20    15   ar
    50    27    28    1
    51    23    24    1
@<TRIPOS>MOLECULE
*****
 46 51 0 0 0
SMALL
GASTEIGER

@<TRIPOS>ATOM
      1 C          59.9440   87.7746    7.9804 C.ar    1  UNL1        0.0702
      2 C          60.4436   87.9337    9.2782 C.ar    1  UNL1        0.0191
      3 C          60.2615   86.9305   10.2312 C.ar    1  UNL1        0.0356
      4 C          59.5836   85.7510    9.8778 C.ar    1  UNL1        0.1318
      5 N          59.1312   85.6081    8.6001 N.ar    1  UNL1       -0.2279
      6 C          59.2943   86.5728    7.6568 C.ar    1  UNL1        0.1149
      7 N          59.3751   84.6888   10.8345 N.pl3   1  UNL1       -0.2932
      8 C          60.4593   83.7342   11.1125 C.3     1  UNL1        0.0923
      9 C          60.3978   83.2774   12.5734 C.3     1  UNL1        0.0252
     10 C          59.0241   82.6609   12.9545 C.3     1  UNL1        0.0472
     11 C          57.8953   83.0545   11.9715 C.3     1  UNL1        0.0252
     12 C          58.0553   84.4893   11.4578 C.3     1  UNL1        0.0923
     13 C          59.1224   81.1314   13.0796 C.3     1  UNL1        0.2054
     14 O          58.6030   80.5113   11.9047 O.3     1  UNL1       -0.4755
     15 C          59.3675   80.1850   10.7750 C.ar    1  UNL1        0.1388
     16 C          60.5128   79.3708   10.8490 C.ar    1  UNL1        0.0369
     17 C          61.2399   79.0761    9.6940 C.ar    1  UNL1        0.0033
     18 C          60.8359   79.5869    8.4583 C.ar    1  UNL1        0.0066
     19 C          59.6942   80.4019    8.3652 C.ar    1  UNL1        0.0785
     20 C          58.9672   80.6940    9.5332 C.ar    1  UNL1        0.0433
     21 C          59.2605   80.9466    7.0595 C.2     1  UNL1        0.3381
     22 O          58.4062   80.3335    6.3636 O.2     1  UNL1       -0.2451
     23 O          59.7925   82.1434    6.5863 O.3     1  UNL1       -0.4771
     24 H          59.5025   82.5250    5.6939 H       1  UNL1        0.2954
     25 C          59.1974   89.1724    6.0012 C.2     1  UNL1        0.2839
     26 O          57.9718   88.9482    6.1913 O.2     1  UNL1       -0.2665
     27 N          60.1591   88.8064    7.0022 N.am    1  UNL1       -0.2766
     28 H          61.0207   89.3917    7.0858 H       1  UNL1        0.1553
     29 C          61.6683   91.4265    2.2712 C.ar    1  UNL1        0.1413
     30 C          61.1620   92.1616    1.1634 C.ar    1  UNL1        0.0342
     31 C          59.7611   92.3431    1.0272 C.ar    1  UNL1        0.0061
     32 C          58.8682   91.7908    1.9589 C.ar    1  UNL1        0.0377
     33 C          59.3955   91.0558    3.0136 C.ar    1  UNL1        0.1481
     34 O          58.7311   90.4720    3.9799 O.2     1  UNL1       -0.4491
     35 C          59.6051   89.8988    4.7861 C.ar    1  UNL1        0.1947
     36 C          60.9046   90.0965    4.3031 C.ar    1  UNL1        0.0231
     37 C          62.1919   89.5791    4.8740 C.3     1  UNL1        0.0346
     38 C          60.7448   90.8662    3.1627 C.ar    1  UNL1        0.0676
     39 C          62.0652   92.7092    0.1237 C.ar    1  UNL1        0.0029
     40 C          61.5357   93.3314   -1.0208 C.ar    1  UNL1        0.0001
     41 C          62.3880   93.8478   -2.0018 C.ar    1  UNL1        0.0000
     42 C          63.7731   93.7433   -1.8522 C.ar    1  UNL1        0.0000
     43 C          64.3089   93.1198   -0.7226 C.ar    1  UNL1        0.0000
     44 C          63.4609   92.6018    0.2609 C.ar    1  UNL1        0.0001
     45 C          63.8888   92.3762    2.7682 C.3     1  UNL1        0.2525
     46 O          63.0394   91.2694    2.4902 O.3     1  UNL1       -0.4713
@<TRIPOS>BOND
     1    45    46    1
     2    46    29    1
     3    29    30   ar
     4    30    39    1
     5    39    40   ar
     6    40    41   ar
     7    41    42   ar
     8    42    43   ar
     9    43    44   ar
    10    30    31   ar
    11    31    32   ar
    12    32    33   ar
    13    33    34   ar
    14    34    35   ar
    15    35    25    1
    16    25    26    2
    17    25    27   am
    18    27     1    1
    19     1     2   ar
    20     2     3   ar
    21     3     4   ar
    22     4     7    1
    23     7     8    1
    24     8     9    1
    25     9    10    1
    26    10    13    1
    27    13    14    1
    28    14    15    1
    29    15    16   ar
    30    16    17   ar
    31    17    18   ar
    32    18    19   ar
    33    19    21    1
    34    21    22    2
    35    21    23    1
    36    19    20   ar
    37    10    11    1
    38    11    12    1
    39     4     5   ar
    40     5     6   ar
    41    35    36   ar
    42    36    37    1
    43    36    38   ar
    44    38    29   ar
    45    44    39   ar
    46    38    33   ar
    47     6     1   ar
    48    12     7    1
    49    20    15   ar
    50    27    28    1
    51    23    24    1
@<TRIPOS>MOLECULE
*****
 46 51 0 0 0
SMALL
GASTEIGER

@<TRIPOS>ATOM
      1 C          61.5460   87.2384    9.4685 C.ar    1  UNL1        0.0702
      2 C          61.5950   87.6081   10.8177 C.ar    1  UNL1        0.0191
      3 C          61.8596   86.6535   11.8007 C.ar    1  UNL1        0.0356
      4 C          62.0898   85.3178   11.4282 C.ar    1  UNL1        0.1318
      5 N          62.0644   84.9883   10.1060 N.ar    1  UNL1       -0.2279
      6 C          61.8057   85.9003    9.1321 C.ar    1  UNL1        0.1149
      7 N          62.3676   84.2998   12.4149 N.pl3   1  UNL1       -0.2932
      8 C          62.9237   83.0055   11.9910 C.3     1  UNL1        0.0923
      9 C          63.8494   82.4484   13.0770 C.3     1  UNL1        0.0252
     10 C          63.1464   82.3093   14.4549 C.3     1  UNL1        0.0472
     11 C          61.8644   83.1695   14.5650 C.3     1  UNL1        0.0252
     12 C          62.0041   84.5055   13.8275 C.3     1  UNL1        0.0923
     13 C          62.8370   80.8362   14.7692 C.3     1  UNL1        0.2054
     14 O          62.4535   80.1530   13.5771 O.3     1  UNL1       -0.4755
     15 C          61.1296   80.0022   13.1393 C.ar    1  UNL1        0.1388
     16 C          60.2569   79.0465   13.6916 C.ar    1  UNL1        0.0369
     17 C          58.9476   78.9362   13.2194 C.ar    1  UNL1        0.0033
     18 C          58.4953   79.7729   12.1965 C.ar    1  UNL1        0.0066
     19 C          59.3530   80.7338   11.6329 C.ar    1  UNL1        0.0785
     20 C          60.6703   80.8386   12.1141 C.ar    1  UNL1        0.0433
     21 C          58.8806   81.6234   10.5489 C.2     1  UNL1        0.3381
     22 O          59.6823   82.0393    9.6690 O.2     1  UNL1       -0.2451
     23 O          57.5441   82.0102   10.4903 O.3     1  UNL1       -0.4771
     24 H          57.2104   82.6188    9.7525 H       1  UNL1        0.2954
     25 C          60.2093   88.1737    7.5277 C.2     1  UNL1        0.2839
     26 O          59.1740   87.5107    7.8050 O.2     1  UNL1       -0.2665
     27 N          61.2953   88.2367    8.4644 N.am    1  UNL1       -0.2766
     28 H          61.8737   89.1068    8.4805 H       1  UNL1        0.1553
     29 C          59.1396   90.6991    3.3350 C.ar    1  UNL1        0.1413
     30 C          60.0178   91.2722    2.3737 C.ar    1  UNL1        0.0342
     31 C          61.4207   91.1423    2.5444 C.ar    1  UNL1        0.0061
     32 C          61.9531   90.4740    3.6581 C.ar    1  UNL1        0.0377
     33 C          61.0669   89.9500    4.5913 C.ar    1  UNL1        0.1481
     34 O          61.3673   89.2928    5.6841 O.2     1  UNL1       -0.4491
     35 C          60.2384   88.9531    6.2779 C.ar    1  UNL1        0.1947
     36 C          59.1471   89.4394    5.5473 C.ar    1  UNL1        0.0231
     37 C          57.6884   89.3296    5.8806 C.3     1  UNL1        0.0346
     38 C          59.7089   90.0661    4.4472 C.ar    1  UNL1        0.0676
     39 C          59.4996   92.0387    1.2160 C.ar    1  UNL1        0.0029
     40 C          60.2316   93.1209    0.6959 C.ar    1  UNL1        0.0001
     41 C          59.7423   93.8442   -0.3964 C.ar    1  UNL1        0.0000
     42 C          58.5184   93.4981   -0.9745 C.ar    1  UNL1        0.0000
     43 C          57.7798   92.4297   -0.4599 C.ar    1  UNL1        0.0000
     44 C          58.2647   91.7035    0.6321 C.ar    1  UNL1        0.0001
     45 C          56.8775   90.8606    4.3026 C.3     1  UNL1        0.2525
     46 O          57.7508   90.7413    3.1861 O.3     1  UNL1       -0.4713
@<TRIPOS>BOND
     1    45    46    1
     2    46    29    1
     3    29    30   ar
     4    30    39    1
     5    39    40   ar
     6    40    41   ar
     7    41    42   ar
     8    42    43   ar
     9    43    44   ar
    10    30    31   ar
    11    31    32   ar
    12    32    33   ar
    13    33    34   ar
    14    34    35   ar
    15    35    25    1
    16    25    26    2
    17    25    27   am
    18    27     1    1
    19     1     2   ar
    20     2     3   ar
    21     3     4   ar
    22     4     7    1
    23     7     8    1
    24     8     9    1
    25     9    10    1
    26    10    13    1
    27    13    14    1
    28    14    15    1
    29    15    16   ar
    30    16    17   ar
    31    17    18   ar
    32    18    19   ar
    33    19    21    1
    34    21    22    2
    35    21    23    1
    36    19    20   ar
    37    10    11    1
    38    11    12    1
    39     4     5   ar
    40     5     6   ar
    41    35    36   ar
    42    36    37    1
    43    36    38   ar
    44    38    29   ar
    45    44    39   ar
    46    38    33   ar
    47     6     1   ar
    48    12     7    1
    49    20    15   ar
    50    27    28    1
    51    23    24    1
@<TRIPOS>MOLECULE
*****
 46 51 0 0 0
SMALL
GASTEIGER

@<TRIPOS>ATOM
      1 C          60.9302   87.7748    8.3767 C.ar    1  UNL1        0.0702
      2 C          61.2743   88.1285    9.6866 C.ar    1  UNL1        0.0191
      3 C          61.4560   87.1431   10.6579 C.ar    1  UNL1        0.0356
      4 C          61.3042   85.7893   10.3114 C.ar    1  UNL1        0.1318
      5 N          60.9964   85.4691    9.0229 N.ar    1  UNL1       -0.2279
      6 C          60.8116   86.4119    8.0615 C.ar    1  UNL1        0.1149
      7 N          61.4842   84.7392   11.2870 N.pl3   1  UNL1       -0.2932
      8 C          61.8717   83.3909   10.8443 C.3     1  UNL1        0.0923
      9 C          62.7522   82.7209   11.9038 C.3     1  UNL1        0.0252
     10 C          62.0730   82.6572   13.2991 C.3     1  UNL1        0.0472
     11 C          60.9056   83.6627   13.4457 C.3     1  UNL1        0.0252
     12 C          61.1840   84.9775   12.7093 C.3     1  UNL1        0.0923
     13 C          61.5990   81.2292   13.6164 C.3     1  UNL1        0.2054
     14 O          60.1763   81.1589   13.5397 O.3     1  UNL1       -0.4755
     15 C          59.4684   80.4238   12.5776 C.ar    1  UNL1        0.1388
     16 C          58.9278   79.1530   12.8471 C.ar    1  UNL1        0.0369
     17 C          58.2315   78.4617   11.8537 C.ar    1  UNL1        0.0033
     18 C          58.0668   79.0263   10.5868 C.ar    1  UNL1        0.0066
     19 C          58.5999   80.2951   10.2995 C.ar    1  UNL1        0.0785
     20 C          59.2998   80.9850   11.3055 C.ar    1  UNL1        0.0433
     21 C          58.4294   80.8992    8.9595 C.2     1  UNL1        0.3381
     22 O          59.2363   80.6282    8.0293 O.2     1  UNL1       -0.2451
     23 O          57.3743   81.7740    8.7128 O.3     1  UNL1       -0.4771
     24 H          57.2485   82.1930    7.7991 H       1  UNL1        0.2954
     25 C          59.8053   88.7370    6.3182 C.2     1  UNL1        0.2839
     26 O          58.7666   88.0352    6.4482 O.2     1  UNL1       -0.2665
     27 N          60.7688   88.7993    7.3806 N.am    1  UNL1       -0.2766
     28 H          61.3122   89.6847    7.4930 H       1  UNL1        0.1553
     29 C          61.4580   91.2354    2.3024 C.ar    1  UNL1        0.1413
     30 C          60.7507   92.0935    1.4151 C.ar    1  UNL1        0.0342
     31 C          59.3717   92.3445    1.6373 C.ar    1  UNL1        0.0061
     32 C          58.6922   91.7424    2.7080 C.ar    1  UNL1        0.0377
     33 C          59.4074   90.8886    3.5388 C.ar    1  UNL1        0.1481
     34 O          58.9556   90.2425    4.5851 O.2     1  UNL1       -0.4491
     35 C          59.9581   89.5592    5.1054 C.ar    1  UNL1        0.1947
     36 C          61.1158   89.7490    4.3407 C.ar    1  UNL1        0.0231
     37 C          62.4667   89.1269    4.5382 C.3     1  UNL1        0.0346
     38 C          60.7388   90.6305    3.3410 C.ar    1  UNL1        0.0676
     39 C          61.4142   92.7008    0.2372 C.ar    1  UNL1        0.0029
     40 C          60.6594   93.0733   -0.8893 C.ar    1  UNL1        0.0001
     41 C          61.2856   93.6462   -2.0006 C.ar    1  UNL1        0.0000
     42 C          62.6683   93.8469   -1.9998 C.ar    1  UNL1        0.0000
     43 C          63.4280   93.4728   -0.8887 C.ar    1  UNL1        0.0000
     44 C          62.8065   92.8995    0.2248 C.ar    1  UNL1        0.0001
     45 C          63.7983   91.9685    2.5573 C.3     1  UNL1        0.2525
     46 O          62.8293   91.0020    2.1696 O.3     1  UNL1       -0.4713
@<TRIPOS>BOND
     1    45    46    1
     2    46    29    1
     3    29    30   ar
     4    30    39    1
     5    39    40   ar
     6    40    41   ar
     7    41    42   ar
     8    42    43   ar
     9    43    44   ar
    10    30    31   ar
    11    31    32   ar
    12    32    33   ar
    13    33    34   ar
    14    34    35   ar
    15    35    25    1
    16    25    26    2
    17    25    27   am
    18    27     1    1
    19     1     2   ar
    20     2     3   ar
    21     3     4   ar
    22     4     7    1
    23     7     8    1
    24     8     9    1
    25     9    10    1
    26    10    13    1
    27    13    14    1
    28    14    15    1
    29    15    16   ar
    30    16    17   ar
    31    17    18   ar
    32    18    19   ar
    33    19    21    1
    34    21    22    2
    35    21    23    1
    36    19    20   ar
    37    10    11    1
    38    11    12    1
    39     4     5   ar
    40     5     6   ar
    41    35    36   ar
    42    36    37    1
    43    36    38   ar
    44    38    29   ar
    45    44    39   ar
    46    38    33   ar
    47     6     1   ar
    48    12     7    1
    49    20    15   ar
    50    27    28    1
    51    23    24    1
