@<TRIPOS>MOLECULE
*****
 40 44 0 0 0
SMALL
GASTEIGER

@<TRIPOS>ATOM
      1 C          -3.9803  -10.4718   31.7056 C.3     1  UNL1        0.0439
      2 C          -5.2183  -10.0439   30.9066 C.3     1  UNL1        0.1375
      3 C          -5.0045   -8.6544   30.2915 C.3     1  UNL1        0.0439
      4 C          -6.5083  -10.0810   31.7927 C.3     1  UNL1        0.0709
      5 C          -7.3429  -11.0873   31.0902 C.ar    1  UNL1        0.0325
      6 C          -6.6923  -11.5743   29.9839 C.ar    1  UNL1        0.1401
      7 C          -7.2678  -12.5624   29.1433 C.ar    1  UNL1        0.0889
      8 C          -8.5521  -13.0654   29.4917 C.ar    1  UNL1        0.0282
      9 C          -9.1833  -12.5457   30.6309 C.ar    1  UNL1        0.0997
     10 N         -10.3871  -12.8765   31.1309 N.ar    1  UNL1       -0.2137
     11 C         -10.4802  -12.0780   32.2304 C.ar    1  UNL1        0.1983
     12 N          -9.4060  -11.2742   32.4253 N.ar    1  UNL1       -0.3255
     13 C          -8.5985  -11.5860   31.4058 C.ar    1  UNL1        0.0755
     14 O          -5.4490  -10.9896   29.8573 O.3     1  UNL1       -0.4824
     15 H          -9.2467  -10.5794   33.1885 H       1  UNL1        0.1686
     16 C          -6.5565  -13.0809   27.9534 C.2     1  UNL1        0.2535
     17 O          -5.6464  -12.3861   27.4242 O.2     1  UNL1       -0.2697
     18 N          -6.8500  -14.3877   27.4337 N.am    1  UNL1       -0.2657
     19 H          -7.1746  -15.1212   28.1032 H       1  UNL1        0.1566
     20 C          -6.5787  -14.7962   26.0840 C.ar    1  UNL1        0.1344
     21 C          -5.3010  -15.2192   25.6846 C.ar    1  UNL1        0.0344
     22 C          -5.0804  -15.5800   24.3544 C.ar    1  UNL1        0.0083
     23 C          -6.1193  -15.4901   23.4157 C.ar    1  UNL1        0.0906
     24 C          -7.3826  -15.0671   23.8580 C.ar    1  UNL1        0.1041
     25 N          -7.5744  -14.7239   25.1594 N.ar    1  UNL1       -0.2291
     26 C          -5.9074  -15.9231   21.9873 C.3     1  UNL1        0.4200
     27 F          -6.9011  -16.8017   21.5912 F       1  UNL1       -0.1658
     28 F          -4.6859  -16.5586   21.8457 F       1  UNL1       -0.1658
     29 F          -5.9350  -14.8116   21.1661 F       1  UNL1       -0.1658
     30 N         -11.6211  -12.0643   33.0961 N.pl3   1  UNL1       -0.2827
     31 H         -11.9219  -11.1514   33.5052 H       1  UNL1        0.1551
     32 C         -12.4825  -13.2019   33.2418 C.ar    1  UNL1        0.0719
     33 C         -13.6109  -13.3644   32.4108 C.ar    1  UNL1        0.0742
     34 CL        -13.9758  -12.2224   31.1227 Cl      1  UNL1       -0.0808
     35 C         -14.4384  -14.4822   32.5679 C.ar    1  UNL1        0.0423
     36 C         -14.1465  -15.4444   33.5369 C.ar    1  UNL1        0.1419
     37 F         -14.9518  -16.5254   33.6823 F       1  UNL1       -0.2041
     38 C         -13.0200  -15.2993   34.3490 C.ar    1  UNL1        0.0423
     39 C         -12.1841  -14.1868   34.2023 C.ar    1  UNL1        0.0742
     40 CL        -10.7849  -14.0299   35.2562 Cl      1  UNL1       -0.0808
@<TRIPOS>BOND
     1     1     2    1
     2     2     3    1
     3     2     4    1
     4     4     5    1
     5     5     6   ar
     6     6     7   ar
     7     7    16    1
     8    16    17    2
     9    16    18   am
    10    18    20    1
    11    20    21   ar
    12    21    22   ar
    13    22    23   ar
    14    23    26    1
    15    26    27    1
    16    26    28    1
    17    26    29    1
    18    23    24   ar
    19    24    25   ar
    20     7     8   ar
    21     8     9   ar
    22     9    10   ar
    23    10    11   ar
    24    11    30    1
    25    30    32    1
    26    32    33   ar
    27    33    34    1
    28    33    35   ar
    29    35    36   ar
    30    36    37    1
    31    36    38   ar
    32    38    39   ar
    33    39    40    1
    34    11    12   ar
    35    12    13   ar
    36     6    14    1
    37    14     2    1
    38    13     5   ar
    39    25    20   ar
    40    13     9   ar
    41    39    32   ar
    42    18    19    1
    43    30    31    1
    44    12    15    1
@<TRIPOS>MOLECULE
*****
 40 44 0 0 0
SMALL
GASTEIGER

@<TRIPOS>ATOM
      1 C          -3.9884  -10.4673   31.6539 C.3     1  UNL1        0.0439
      2 C          -5.2268  -10.0510   30.8494 C.3     1  UNL1        0.1375
      3 C          -5.0190   -8.6643   30.2262 C.3     1  UNL1        0.0439
      4 C          -6.5187  -10.0895   31.7328 C.3     1  UNL1        0.0709
      5 C          -7.3463  -11.1046   31.0346 C.ar    1  UNL1        0.0325
      6 C          -6.6905  -11.5951   29.9329 C.ar    1  UNL1        0.1401
      7 C          -7.2588  -12.5914   29.0971 C.ar    1  UNL1        0.0889
      8 C          -8.5412  -13.0991   29.4457 C.ar    1  UNL1        0.0282
      9 C          -9.1778  -12.5756   30.5802 C.ar    1  UNL1        0.0997
     10 N         -10.3810  -12.9097   31.0794 N.ar    1  UNL1       -0.2137
     11 C         -10.4809  -12.1049   32.1737 C.ar    1  UNL1        0.1983
     12 N          -9.4114  -11.2942   32.3661 N.ar    1  UNL1       -0.3255
     13 C          -8.5999  -11.6081   31.3505 C.ar    1  UNL1        0.0755
     14 O          -5.4500  -11.0045   29.8055 O.3     1  UNL1       -0.4824
     15 H          -9.2577  -10.5938   33.1253 H       1  UNL1        0.1686
     16 C          -6.5419  -13.1135   27.9122 C.2     1  UNL1        0.2535
     17 O          -5.6146  -12.4300   27.3983 O.2     1  UNL1       -0.2697
     18 N          -6.8502  -14.4120   27.3802 N.am    1  UNL1       -0.2657
     19 H          -7.1945  -15.1444   28.0409 H       1  UNL1        0.1566
     20 C          -6.5697  -14.8158   26.0310 C.ar    1  UNL1        0.1344
     21 C          -5.2892  -15.2372   25.6389 C.ar    1  UNL1        0.0344
     22 C          -5.0595  -15.5936   24.3091 C.ar    1  UNL1        0.0083
     23 C          -6.0920  -15.5008   23.3636 C.ar    1  UNL1        0.0906
     24 C          -7.3583  -15.0796   23.7988 C.ar    1  UNL1        0.1041
     25 N          -7.5591  -14.7408   25.0999 N.ar    1  UNL1       -0.2291
     26 C          -5.8703  -15.9290   21.9353 C.3     1  UNL1        0.4200
     27 F          -4.7236  -16.6969   21.8284 F       1  UNL1       -0.1658
     28 F          -5.7312  -14.8260   21.1107 F       1  UNL1       -0.1658
     29 F          -6.9536  -16.6753   21.5107 F       1  UNL1       -0.1658
     30 N         -11.6238  -12.0919   33.0367 N.pl3   1  UNL1       -0.2827
     31 H         -11.9392  -11.1760   33.4278 H       1  UNL1        0.1551
     32 C         -12.4685  -13.2393   33.2021 C.ar    1  UNL1        0.0719
     33 C         -12.1812  -14.2124   34.1823 C.ar    1  UNL1        0.0742
     34 CL        -10.8206  -14.0332   35.2839 Cl      1  UNL1       -0.0808
     35 C         -13.0186  -15.3242   34.3290 C.ar    1  UNL1        0.0423
     36 C         -14.1448  -15.4700   33.5164 C.ar    1  UNL1        0.1419
     37 F         -14.9523  -16.5489   33.6651 F       1  UNL1       -0.2041
     38 C         -14.4456  -14.5004   32.5579 C.ar    1  UNL1        0.0423
     39 C         -13.6171  -13.3837   32.4010 C.ar    1  UNL1        0.0742
     40 CL        -14.0188  -12.1932   31.1705 Cl      1  UNL1       -0.0808
@<TRIPOS>BOND
     1     1     2    1
     2     2     3    1
     3     2     4    1
     4     4     5    1
     5     5     6   ar
     6     6     7   ar
     7     7    16    1
     8    16    17    2
     9    16    18   am
    10    18    20    1
    11    20    21   ar
    12    21    22   ar
    13    22    23   ar
    14    23    26    1
    15    26    27    1
    16    26    28    1
    17    26    29    1
    18    23    24   ar
    19    24    25   ar
    20     7     8   ar
    21     8     9   ar
    22     9    10   ar
    23    10    11   ar
    24    11    30    1
    25    30    32    1
    26    32    33   ar
    27    33    34    1
    28    33    35   ar
    29    35    36   ar
    30    36    37    1
    31    36    38   ar
    32    38    39   ar
    33    39    40    1
    34    11    12   ar
    35    12    13   ar
    36     6    14    1
    37    14     2    1
    38    13     5   ar
    39    25    20   ar
    40    13     9   ar
    41    39    32   ar
    42    18    19    1
    43    30    31    1
    44    12    15    1
@<TRIPOS>MOLECULE
*****
 40 44 0 0 0
SMALL
GASTEIGER

@<TRIPOS>ATOM
      1 C          -3.5916  -10.7254   29.1741 C.3     1  UNL1        0.0439
      2 C          -4.9583  -10.5610   28.4964 C.3     1  UNL1        0.1375
      3 C          -4.8995   -9.4554   27.4340 C.3     1  UNL1        0.0439
      4 C          -6.0844  -10.2804   29.5471 C.3     1  UNL1        0.0709
      5 C          -6.9843  -11.4460   29.3616 C.ar    1  UNL1        0.0325
      6 C          -6.5050  -12.2819   28.3838 C.ar    1  UNL1        0.1401
      7 C          -7.1727  -13.4805   28.0208 C.ar    1  UNL1        0.0889
      8 C          -8.3634  -13.8168   28.7228 C.ar    1  UNL1        0.0282
      9 C          -8.8194  -12.9396   29.7173 C.ar    1  UNL1        0.0997
     10 N          -9.9125  -13.0650   30.4906 N.ar    1  UNL1       -0.2137
     11 C          -9.8548  -11.9477   31.2675 C.ar    1  UNL1        0.1983
     12 N          -8.7939  -11.1448   31.0073 N.ar    1  UNL1       -0.3255
     13 C          -8.1523  -11.7896   30.0269 C.ar    1  UNL1        0.0755
     14 O          -5.3216  -11.7947   27.8682 O.3     1  UNL1       -0.4824
     15 H          -8.5383  -10.2407   31.4634 H       1  UNL1        0.1686
     16 C          -6.6460  -14.3747   26.9656 C.2     1  UNL1        0.2535
     17 O          -5.5342  -14.9459   27.1357 O.2     1  UNL1       -0.2697
     18 N          -7.4127  -14.6442   25.7809 N.am    1  UNL1       -0.2657
     19 H          -8.4546  -14.6205   25.8541 H       1  UNL1        0.1566
     20 C          -6.8458  -15.0960   24.5413 C.ar    1  UNL1        0.1344
     21 C          -7.4752  -16.0754   23.7566 C.ar    1  UNL1        0.0344
     22 C          -6.8705  -16.5018   22.5730 C.ar    1  UNL1        0.0083
     23 C          -5.6272  -15.9793   22.1861 C.ar    1  UNL1        0.0906
     24 C          -5.0348  -14.9985   22.9969 C.ar    1  UNL1        0.1041
     25 N          -5.6442  -14.5965   24.1437 N.ar    1  UNL1       -0.2291
     26 C          -4.9871  -16.3951   20.8861 C.3     1  UNL1        0.4200
     27 F          -5.0552  -15.3698   19.9586 F       1  UNL1       -0.1658
     28 F          -5.6297  -17.5009   20.3569 F       1  UNL1       -0.1658
     29 F          -3.6604  -16.7104   21.1125 F       1  UNL1       -0.1658
     30 N         -10.8390  -11.6287   32.2578 N.pl3   1  UNL1       -0.2827
     31 H         -11.1998  -10.6493   32.3006 H       1  UNL1        0.1551
     32 C         -11.4975  -12.6400   33.0331 C.ar    1  UNL1        0.0719
     33 C         -10.8759  -13.1973   34.1703 C.ar    1  UNL1        0.0742
     34 CL         -9.3032  -12.6361   34.7256 Cl      1  UNL1       -0.0808
     35 C         -11.5356  -14.1820   34.9145 C.ar    1  UNL1        0.0423
     36 C         -12.8123  -14.6087   34.5431 C.ar    1  UNL1        0.1419
     37 F         -13.4460  -15.5620   35.2697 F       1  UNL1       -0.2041
     38 C         -13.4410  -14.0468   33.4302 C.ar    1  UNL1        0.0423
     39 C         -12.7929  -13.0612   32.6777 C.ar    1  UNL1        0.0742
     40 CL        -13.6097  -12.3905   31.2720 Cl      1  UNL1       -0.0808
@<TRIPOS>BOND
     1     1     2    1
     2     2     3    1
     3     2     4    1
     4     4     5    1
     5     5     6   ar
     6     6     7   ar
     7     7    16    1
     8    16    17    2
     9    16    18   am
    10    18    20    1
    11    20    21   ar
    12    21    22   ar
    13    22    23   ar
    14    23    26    1
    15    26    27    1
    16    26    28    1
    17    26    29    1
    18    23    24   ar
    19    24    25   ar
    20     7     8   ar
    21     8     9   ar
    22     9    10   ar
    23    10    11   ar
    24    11    30    1
    25    30    32    1
    26    32    33   ar
    27    33    34    1
    28    33    35   ar
    29    35    36   ar
    30    36    37    1
    31    36    38   ar
    32    38    39   ar
    33    39    40    1
    34    11    12   ar
    35    12    13   ar
    36     6    14    1
    37    14     2    1
    38    13     5   ar
    39    25    20   ar
    40    13     9   ar
    41    39    32   ar
    42    18    19    1
    43    30    31    1
    44    12    15    1
@<TRIPOS>MOLECULE
*****
 40 44 0 0 0
SMALL
GASTEIGER

@<TRIPOS>ATOM
      1 C         -13.5021  -14.3912   31.7811 C.3     1  UNL1        0.0439
      2 C         -12.0235  -14.2207   32.1541 C.3     1  UNL1        0.1375
      3 C         -11.6238  -15.2341   33.2347 C.3     1  UNL1        0.0439
      4 C         -11.7167  -12.7544   32.6085 C.3     1  UNL1        0.0709
      5 C         -10.7250  -12.3131   31.5963 C.ar    1  UNL1        0.0325
      6 C         -10.4696  -13.3155   30.6939 C.ar    1  UNL1        0.1401
      7 C          -9.5661  -13.1462   29.6126 C.ar    1  UNL1        0.0889
      8 C          -8.9337  -11.8802   29.4668 C.ar    1  UNL1        0.0282
      9 C          -9.2229  -10.8803   30.4065 C.ar    1  UNL1        0.0997
     10 N          -8.7373   -9.6271   30.4541 N.ar    1  UNL1       -0.2137
     11 C          -9.3587   -9.1107   31.5507 C.ar    1  UNL1        0.1983
     12 N         -10.1891   -9.9791   32.1785 N.ar    1  UNL1       -0.3255
     13 C         -10.0901  -11.0894   31.4397 C.ar    1  UNL1        0.0755
     14 O         -11.2186  -14.4357   30.9902 O.3     1  UNL1       -0.4824
     15 H         -10.7679   -9.8193   33.0330 H       1  UNL1        0.1686
     16 C          -9.2992  -14.2339   28.6450 C.2     1  UNL1        0.2535
     17 O          -8.9764  -15.3766   29.0710 O.2     1  UNL1       -0.2697
     18 N          -9.4616  -14.0182   27.2340 N.am    1  UNL1       -0.2657
     19 H         -10.1747  -13.3211   26.9225 H       1  UNL1        0.1566
     20 C          -8.8201  -14.8077   26.2204 C.ar    1  UNL1        0.1344
     21 C          -7.4577  -15.1381   26.2958 C.ar    1  UNL1        0.0344
     22 C          -6.8731  -15.8846   25.2714 C.ar    1  UNL1        0.0083
     23 C          -7.6333  -16.2748   24.1585 C.ar    1  UNL1        0.0906
     24 C          -8.9930  -15.9280   24.1253 C.ar    1  UNL1        0.1041
     25 N          -9.5411  -15.2031   25.1363 N.ar    1  UNL1       -0.2291
     26 C          -7.0267  -17.1227   23.0696 C.3     1  UNL1        0.4200
     27 F          -7.6410  -18.3620   23.0166 F       1  UNL1       -0.1658
     28 F          -5.6757  -17.3185   23.2983 F       1  UNL1       -0.1658
     29 F          -7.1902  -16.4864   21.8533 F       1  UNL1       -0.1658
     30 N          -9.1398   -7.7758   32.0208 N.pl3   1  UNL1       -0.2827
     31 H          -8.5967   -7.6439   32.9033 H       1  UNL1        0.1551
     32 C          -9.4436   -6.6250   31.2202 C.ar    1  UNL1        0.0719
     33 C          -8.4122   -5.8238   30.6867 C.ar    1  UNL1        0.0742
     34 CL         -6.7167   -6.2321   30.9212 Cl      1  UNL1       -0.0808
     35 C          -8.7293   -4.7058   29.9067 C.ar    1  UNL1        0.0423
     36 C         -10.0627   -4.3849   29.6444 C.ar    1  UNL1        0.1419
     37 F         -10.3624   -3.3011   28.8868 F       1  UNL1       -0.2041
     38 C         -11.0875   -5.1853   30.1532 C.ar    1  UNL1        0.0423
     39 C         -10.7845   -6.3061   30.9340 C.ar    1  UNL1        0.0742
     40 CL        -12.1031   -7.2792   31.5722 Cl      1  UNL1       -0.0808
@<TRIPOS>BOND
     1     1     2    1
     2     2     3    1
     3     2     4    1
     4     4     5    1
     5     5     6   ar
     6     6     7   ar
     7     7    16    1
     8    16    17    2
     9    16    18   am
    10    18    20    1
    11    20    21   ar
    12    21    22   ar
    13    22    23   ar
    14    23    26    1
    15    26    27    1
    16    26    28    1
    17    26    29    1
    18    23    24   ar
    19    24    25   ar
    20     7     8   ar
    21     8     9   ar
    22     9    10   ar
    23    10    11   ar
    24    11    30    1
    25    30    32    1
    26    32    33   ar
    27    33    34    1
    28    33    35   ar
    29    35    36   ar
    30    36    37    1
    31    36    38   ar
    32    38    39   ar
    33    39    40    1
    34    11    12   ar
    35    12    13   ar
    36     6    14    1
    37    14     2    1
    38    13     5   ar
    39    25    20   ar
    40    13     9   ar
    41    39    32   ar
    42    18    19    1
    43    30    31    1
    44    12    15    1
@<TRIPOS>MOLECULE
*****
 40 44 0 0 0
SMALL
GASTEIGER

@<TRIPOS>ATOM
      1 C         -13.4838  -14.3841   31.7838 C.3     1  UNL1        0.0439
      2 C         -12.0043  -14.2080   32.1504 C.3     1  UNL1        0.1375
      3 C         -11.5975  -15.2161   33.2334 C.3     1  UNL1        0.0439
      4 C         -11.6998  -12.7391   32.5979 C.3     1  UNL1        0.0709
      5 C         -10.7132  -12.2990   31.5802 C.ar    1  UNL1        0.0325
      6 C         -10.4585  -13.3042   30.6807 C.ar    1  UNL1        0.1401
      7 C          -9.5597  -13.1366   29.5952 C.ar    1  UNL1        0.0889
      8 C          -8.9315  -11.8694   29.4421 C.ar    1  UNL1        0.0282
      9 C          -9.2197  -10.8667   30.3790 C.ar    1  UNL1        0.0997
     10 N          -8.7375   -9.6120   30.4199 N.ar    1  UNL1       -0.2137
     11 C          -9.3560   -9.0931   31.5169 C.ar    1  UNL1        0.1983
     12 N         -10.1816   -9.9613   32.1513 N.ar    1  UNL1       -0.3255
     13 C         -10.0824  -11.0742   31.4164 C.ar    1  UNL1        0.0755
     14 O         -11.2033  -14.4253   30.9843 O.3     1  UNL1       -0.4824
     15 H         -10.7575   -9.7997   33.0075 H       1  UNL1        0.1686
     16 C          -9.2935  -14.2273   28.6309 C.2     1  UNL1        0.2535
     17 O          -8.9786  -15.3708   29.0604 O.2     1  UNL1       -0.2697
     18 N          -9.4480  -14.0133   27.2186 N.am    1  UNL1       -0.2657
     19 H         -10.1561  -13.3131   26.9025 H       1  UNL1        0.1566
     20 C          -8.8055  -14.8077   26.2096 C.ar    1  UNL1        0.1344
     21 C          -7.4403  -15.1272   26.2815 C.ar    1  UNL1        0.0344
     22 C          -6.8552  -15.8792   25.2615 C.ar    1  UNL1        0.0083
     23 C          -7.6177  -16.2858   24.1561 C.ar    1  UNL1        0.0906
     24 C          -8.9802  -15.9493   24.1262 C.ar    1  UNL1        0.1041
     25 N          -9.5288  -15.2188   25.1329 N.ar    1  UNL1       -0.2291
     26 C          -7.0102  -17.1395   23.0724 C.3     1  UNL1        0.4200
     27 F          -7.6105  -18.3863   23.0391 F       1  UNL1       -0.1658
     28 F          -5.6552  -17.3171   23.2925 F       1  UNL1       -0.1658
     29 F          -7.1907  -16.5198   21.8500 F       1  UNL1       -0.1658
     30 N          -9.1390   -7.7557   31.9811 N.pl3   1  UNL1       -0.2827
     31 H          -8.5802   -7.6182   32.8528 H       1  UNL1        0.1551
     32 C          -9.4673   -6.6086   31.1849 C.ar    1  UNL1        0.0719
     33 C         -10.8119   -6.2764   30.9168 C.ar    1  UNL1        0.0742
     34 CL        -12.1416   -7.2081   31.5954 Cl      1  UNL1       -0.0808
     35 C         -11.1116   -5.1521   30.1389 C.ar    1  UNL1        0.0423
     36 C         -10.0855   -4.3501   29.6351 C.ar    1  UNL1        0.1419
     37 F         -10.3833   -3.2617   28.8835 F       1  UNL1       -0.2041
     38 C          -8.7534   -4.6623   29.9135 C.ar    1  UNL1        0.0423
     39 C          -8.4398   -5.7832   30.6902 C.ar    1  UNL1        0.0742
     40 CL         -6.7496   -6.1542   31.0040 Cl      1  UNL1       -0.0808
@<TRIPOS>BOND
     1     1     2    1
     2     2     3    1
     3     2     4    1
     4     4     5    1
     5     5     6   ar
     6     6     7   ar
     7     7    16    1
     8    16    17    2
     9    16    18   am
    10    18    20    1
    11    20    21   ar
    12    21    22   ar
    13    22    23   ar
    14    23    26    1
    15    26    27    1
    16    26    28    1
    17    26    29    1
    18    23    24   ar
    19    24    25   ar
    20     7     8   ar
    21     8     9   ar
    22     9    10   ar
    23    10    11   ar
    24    11    30    1
    25    30    32    1
    26    32    33   ar
    27    33    34    1
    28    33    35   ar
    29    35    36   ar
    30    36    37    1
    31    36    38   ar
    32    38    39   ar
    33    39    40    1
    34    11    12   ar
    35    12    13   ar
    36     6    14    1
    37    14     2    1
    38    13     5   ar
    39    25    20   ar
    40    13     9   ar
    41    39    32   ar
    42    18    19    1
    43    30    31    1
    44    12    15    1
