@<TRIPOS>MOLECULE
*****
 35 38 0 0 0
SMALL
GASTEIGER

@<TRIPOS>ATOM
      1 C         -25.8470   50.0733   -8.9411 C.ar    1  UNL1        0.0179
      2 C         -25.5953   50.8016  -10.1117 C.ar    1  UNL1        0.0028
      3 C         -24.4407   51.5822  -10.2212 C.ar    1  UNL1        0.0148
      4 C         -23.5205   51.6423   -9.1594 C.ar    1  UNL1        0.0516
      5 C         -23.7530   50.8730   -8.0098 C.ar    1  UNL1        0.0148
      6 C         -24.9077   50.0933   -7.9005 C.ar    1  UNL1        0.0028
      7 C         -27.7799   51.9927   -7.1571 C.3     1  UNL1        0.0327
      8 C         -28.5449   50.7242   -7.3667 C.ar    1  UNL1       -0.0005
      9 C         -29.8187   50.4566   -6.8698 C.ar    1  UNL1        0.0693
     10 N         -30.2397   49.2381   -7.2753 N.ar    1  UNL1       -0.3376
     11 C         -29.2389   48.7368   -8.0151 C.ar    1  UNL1        0.1438
     12 N         -29.2554   47.5497   -8.6666 N.ar    1  UNL1       -0.2042
     13 C         -28.1693   47.2028   -9.4157 C.ar    1  UNL1        0.1876
     14 S         -28.1570   45.6487  -10.2939 S.3     1  UNL1       -0.1034
     15 N         -27.0884   48.0383   -9.4978 N.ar    1  UNL1       -0.2213
     16 C         -27.0523   49.2357   -8.8416 C.ar    1  UNL1        0.0860
     17 C         -28.1769   49.5952   -8.0870 C.ar    1  UNL1        0.0492
     18 H         -31.1608   48.7907   -7.0709 H       1  UNL1        0.1674
     19 H         -28.7271   46.2326  -11.4406 H       1  UNL1        0.1101
     20 N         -22.3153   52.4197   -9.2550 N.am    1  UNL1       -0.2679
     21 C         -21.3069   52.2128  -10.2627 C.2     1  UNL1        0.3115
     22 O         -21.5294   51.4183  -11.2172 O.2     1  UNL1       -0.2519
     23 N         -20.0493   52.9209  -10.2064 N.am    1  UNL1       -0.2396
     24 H         -22.2207   53.2304   -8.6042 H       1  UNL1        0.1564
     25 C         -19.8858   54.0704   -9.3583 C.ar    1  UNL1        0.0659
     26 C         -20.1536   55.3499   -9.8682 C.ar    1  UNL1        0.0158
     27 C         -19.9983   56.4787   -9.0594 C.ar    1  UNL1        0.0013
     28 C         -19.5779   56.3379   -7.7349 C.ar    1  UNL1        0.0009
     29 C         -19.3143   55.0677   -7.2155 C.ar    1  UNL1        0.0127
     30 C         -19.4674   53.9313   -8.0190 C.ar    1  UNL1        0.0714
     31 CL        -19.1469   52.3490   -7.3212 Cl      1  UNL1       -0.0809
     32 C         -18.9335   52.5227  -11.0745 C.3     1  UNL1        0.1314
     33 C         -17.8208   51.8729  -10.2507 C.3     1  UNL1        0.1590
     34 O         -16.6188   51.8750  -10.9712 O.3     1  UNL1       -0.3802
     35 H         -16.2607   52.7998  -10.9229 H       1  UNL1        0.2105
@<TRIPOS>BOND
     1     7     8    1
     2     8     9   ar
     3     9    10   ar
     4    10    11   ar
     5    11    12   ar
     6    12    13   ar
     7    13    14    1
     8    13    15   ar
     9    15    16   ar
    10    16     1    1
    11     1     2   ar
    12     2     3   ar
    13     3     4   ar
    14     4    20    1
    15    20    21   am
    16    21    22    2
    17    21    23   am
    18    23    32    1
    19    32    33    1
    20    33    34    1
    21    23    25    1
    22    25    26   ar
    23    26    27   ar
    24    27    28   ar
    25    28    29   ar
    26    29    30   ar
    27    30    31    1
    28     4     5   ar
    29     5     6   ar
    30    16    17   ar
    31    17     8   ar
    32    17    11   ar
    33     6     1   ar
    34    30    25   ar
    35    10    18    1
    36    14    19    1
    37    20    24    1
    38    34    35    1
@<TRIPOS>MOLECULE
*****
 35 38 0 0 0
SMALL
GASTEIGER

@<TRIPOS>ATOM
      1 C         -26.7474   50.9111   -8.9616 C.ar    1  UNL1        0.0179
      2 C         -25.7126   50.2326   -8.3036 C.ar    1  UNL1        0.0028
      3 C         -24.3969   50.6969   -8.3934 C.ar    1  UNL1        0.0148
      4 C         -24.1000   51.8496   -9.1424 C.ar    1  UNL1        0.0516
      5 C         -25.1462   52.5522   -9.7582 C.ar    1  UNL1        0.0148
      6 C         -26.4611   52.0874   -9.6687 C.ar    1  UNL1        0.0028
      7 C         -27.6369   52.2918   -6.1500 C.3     1  UNL1        0.0327
      8 C         -28.8027   51.4606   -6.5836 C.ar    1  UNL1       -0.0005
      9 C         -30.0018   51.3239   -5.8876 C.ar    1  UNL1        0.0693
     10 N         -30.8607   50.5364   -6.5722 N.ar    1  UNL1       -0.3376
     11 C         -30.2083   50.1725   -7.6868 C.ar    1  UNL1        0.1438
     12 N         -30.7175   49.4193   -8.6905 N.ar    1  UNL1       -0.2042
     13 C         -29.9358   49.1732   -9.7811 C.ar    1  UNL1        0.1876
     14 S         -30.5748   48.1898  -11.1270 S.3     1  UNL1       -0.1034
     15 N         -28.6644   49.6749   -9.8501 N.ar    1  UNL1       -0.2213
     16 C         -28.1327   50.4303   -8.8438 C.ar    1  UNL1        0.0860
     17 C         -28.9452   50.6943   -7.7332 C.ar    1  UNL1        0.0492
     18 H         -31.8357   50.2823   -6.2984 H       1  UNL1        0.1674
     19 H         -31.0852   49.3254  -11.7832 H       1  UNL1        0.1101
     20 N         -22.7594   52.3601   -9.2327 N.am    1  UNL1       -0.2679
     21 C         -21.7567   51.8248  -10.1177 C.2     1  UNL1        0.3115
     22 O         -22.0791   50.9623  -10.9803 O.2     1  UNL1       -0.2519
     23 N         -20.3876   52.2791  -10.0446 N.am    1  UNL1       -0.2396
     24 H         -22.5412   53.2204   -8.6831 H       1  UNL1        0.1564
     25 C         -20.0452   53.4828   -9.3366 C.ar    1  UNL1        0.0659
     26 C         -20.3601   54.7292   -9.8988 C.ar    1  UNL1        0.0158
     27 C         -20.0333   55.9097   -9.2263 C.ar    1  UNL1        0.0013
     28 C         -19.3928   55.8540   -7.9863 C.ar    1  UNL1        0.0009
     29 C         -19.0800   54.6177   -7.4149 C.ar    1  UNL1        0.0127
     30 C         -19.4041   53.4301   -8.0819 C.ar    1  UNL1        0.0714
     31 CL        -19.0133   51.8943   -7.3189 Cl      1  UNL1       -0.0809
     32 C         -19.3265   51.5568  -10.7585 C.3     1  UNL1        0.1314
     33 C         -18.6017   52.4921  -11.7275 C.3     1  UNL1        0.1590
     34 O         -17.2149   52.3186  -11.6239 O.3     1  UNL1       -0.3802
     35 H         -16.9975   51.4776  -12.1050 H       1  UNL1        0.2105
@<TRIPOS>BOND
     1     7     8    1
     2     8     9   ar
     3     9    10   ar
     4    10    11   ar
     5    11    12   ar
     6    12    13   ar
     7    13    14    1
     8    13    15   ar
     9    15    16   ar
    10    16     1    1
    11     1     2   ar
    12     2     3   ar
    13     3     4   ar
    14     4    20    1
    15    20    21   am
    16    21    22    2
    17    21    23   am
    18    23    32    1
    19    32    33    1
    20    33    34    1
    21    23    25    1
    22    25    26   ar
    23    26    27   ar
    24    27    28   ar
    25    28    29   ar
    26    29    30   ar
    27    30    31    1
    28     4     5   ar
    29     5     6   ar
    30    16    17   ar
    31    17     8   ar
    32    17    11   ar
    33     6     1   ar
    34    30    25   ar
    35    10    18    1
    36    14    19    1
    37    20    24    1
    38    34    35    1
@<TRIPOS>MOLECULE
*****
 35 38 0 0 0
SMALL
GASTEIGER

@<TRIPOS>ATOM
      1 C         -26.5344   51.1814  -10.3831 C.ar    1  UNL1        0.0179
      2 C         -26.2466   51.9156   -9.2245 C.ar    1  UNL1        0.0028
      3 C         -24.9533   52.3959   -8.9980 C.ar    1  UNL1        0.0148
      4 C         -23.9303   52.1489   -9.9309 C.ar    1  UNL1        0.0516
      5 C         -24.2354   51.4560  -11.1117 C.ar    1  UNL1        0.0148
      6 C         -25.5282   50.9755  -11.3374 C.ar    1  UNL1        0.0028
      7 C         -26.4324   48.2824   -8.9040 C.3     1  UNL1        0.0327
      8 C         -27.7909   48.3774   -9.5233 C.ar    1  UNL1       -0.0005
      9 C         -28.7767   47.3947   -9.4649 C.ar    1  UNL1        0.0693
     10 N         -29.9001   47.8118  -10.0898 N.ar    1  UNL1       -0.3376
     11 C         -29.6248   49.0434  -10.5455 C.ar    1  UNL1        0.1438
     12 N         -30.4916   49.8591  -11.1916 N.ar    1  UNL1       -0.2042
     13 C         -30.0675   51.1044  -11.5531 C.ar    1  UNL1        0.1876
     14 S         -31.1836   52.2103  -12.4006 S.3     1  UNL1       -0.1034
     15 N         -28.7918   51.5114  -11.2708 N.ar    1  UNL1       -0.2213
     16 C         -27.9027   50.6990  -10.6263 C.ar    1  UNL1        0.0860
     17 C         -28.3479   49.4271  -10.2422 C.ar    1  UNL1        0.0492
     18 H         -30.8003   47.2905  -10.1799 H       1  UNL1        0.1674
     19 H         -31.6511   52.7512  -11.1885 H       1  UNL1        0.1101
     20 N         -22.5978   52.6502   -9.7324 N.am    1  UNL1       -0.2679
     21 C         -21.4226   52.0513  -10.3114 C.2     1  UNL1        0.3115
     22 O         -21.5450   51.1292  -11.1638 O.2     1  UNL1       -0.2519
     23 N         -20.1026   52.5083   -9.9439 N.am    1  UNL1       -0.2396
     24 H         -22.5017   53.5476   -9.2080 H       1  UNL1        0.1564
     25 C         -19.9175   53.7596   -9.2604 C.ar    1  UNL1        0.0659
     26 C         -20.2298   54.9594   -9.9174 C.ar    1  UNL1        0.0158
     27 C         -20.0544   56.1851   -9.2697 C.ar    1  UNL1        0.0013
     28 C         -19.5692   56.2214   -7.9604 C.ar    1  UNL1        0.0009
     29 C         -19.2607   55.0319   -7.2951 C.ar    1  UNL1        0.0127
     30 C         -19.4336   53.7994   -7.9366 C.ar    1  UNL1        0.0714
     31 CL        -19.0547   52.3242   -7.0571 Cl      1  UNL1       -0.0809
     32 C         -18.9150   51.7352  -10.3303 C.3     1  UNL1        0.1314
     33 C         -18.4008   52.1920  -11.6963 C.3     1  UNL1        0.1590
     34 O         -17.0041   52.0891  -11.7485 O.3     1  UNL1       -0.3802
     35 H         -16.7951   51.1264  -11.8726 H       1  UNL1        0.2105
@<TRIPOS>BOND
     1     7     8    1
     2     8     9   ar
     3     9    10   ar
     4    10    11   ar
     5    11    12   ar
     6    12    13   ar
     7    13    14    1
     8    13    15   ar
     9    15    16   ar
    10    16     1    1
    11     1     2   ar
    12     2     3   ar
    13     3     4   ar
    14     4    20    1
    15    20    21   am
    16    21    22    2
    17    21    23   am
    18    23    32    1
    19    32    33    1
    20    33    34    1
    21    23    25    1
    22    25    26   ar
    23    26    27   ar
    24    27    28   ar
    25    28    29   ar
    26    29    30   ar
    27    30    31    1
    28     4     5   ar
    29     5     6   ar
    30    16    17   ar
    31    17     8   ar
    32    17    11   ar
    33     6     1   ar
    34    30    25   ar
    35    10    18    1
    36    14    19    1
    37    20    24    1
    38    34    35    1
@<TRIPOS>MOLECULE
*****
 35 38 0 0 0
SMALL
GASTEIGER

@<TRIPOS>ATOM
      1 C         -27.0760   50.9409   -8.5024 C.ar    1  UNL1        0.0179
      2 C         -26.8665   52.1963   -9.0890 C.ar    1  UNL1        0.0028
      3 C         -25.5673   52.6576   -9.3211 C.ar    1  UNL1        0.0148
      4 C         -24.4592   51.8659   -8.9702 C.ar    1  UNL1        0.0516
      5 C         -24.6753   50.5902   -8.4287 C.ar    1  UNL1        0.0148
      6 C         -25.9742   50.1298   -8.1963 C.ar    1  UNL1        0.0028
      7 C         -28.3109   51.2110  -11.5031 C.3     1  UNL1        0.0327
      8 C         -29.4378   50.7413  -10.6384 C.ar    1  UNL1       -0.0005
      9 C         -30.7394   50.4945  -11.0697 C.ar    1  UNL1        0.0693
     10 N         -31.4999   50.0420  -10.0482 N.ar    1  UNL1       -0.3376
     11 C         -30.6890   50.0100   -8.9797 C.ar    1  UNL1        0.1438
     12 N         -31.0256   49.5670   -7.7450 N.ar    1  UNL1       -0.2042
     13 C         -30.0686   49.5589   -6.7727 C.ar    1  UNL1        0.1876
     14 S         -30.4731   48.9760   -5.1346 S.3     1  UNL1       -0.1034
     15 N         -28.8004   49.9954   -7.0447 N.ar    1  UNL1       -0.2213
     16 C         -28.4459   50.4520   -8.2823 C.ar    1  UNL1        0.0860
     17 C         -29.4276   50.4428   -9.2821 C.ar    1  UNL1        0.0492
     18 H         -32.5037   49.7577  -10.0893 H       1  UNL1        0.1674
     19 H         -30.1150   47.6544   -5.4599 H       1  UNL1        0.1101
     20 N         -23.1139   52.3074   -9.2181 N.am    1  UNL1       -0.2679
     21 C         -22.2917   51.8071  -10.2899 C.2     1  UNL1        0.3115
     22 O         -22.7965   51.0533  -11.1667 O.2     1  UNL1       -0.2519
     23 N         -20.8983   52.1752  -10.3863 N.am    1  UNL1       -0.2396
     24 H         -22.7580   53.0958   -8.6337 H       1  UNL1        0.1564
     25 C         -20.3727   53.2822   -9.6344 C.ar    1  UNL1        0.0659
     26 C         -20.6047   54.5926  -10.0790 C.ar    1  UNL1        0.0158
     27 C         -20.0999   55.6809   -9.3623 C.ar    1  UNL1        0.0013
     28 C         -19.3629   55.4685   -8.1951 C.ar    1  UNL1        0.0009
     29 C         -19.1311   54.1677   -7.7405 C.ar    1  UNL1        0.0127
     30 C         -19.6334   53.0716   -8.4524 C.ar    1  UNL1        0.0714
     31 CL        -19.3387   51.4513   -7.8350 Cl      1  UNL1       -0.0809
     32 C         -20.0065   51.4689  -11.3153 C.3     1  UNL1        0.1314
     33 C         -18.7101   52.2556  -11.5141 C.3     1  UNL1        0.1590
     34 O         -18.0368   51.8015  -12.6562 O.3     1  UNL1       -0.3802
     35 H         -18.5145   52.1843  -13.4380 H       1  UNL1        0.2105
@<TRIPOS>BOND
     1     7     8    1
     2     8     9   ar
     3     9    10   ar
     4    10    11   ar
     5    11    12   ar
     6    12    13   ar
     7    13    14    1
     8    13    15   ar
     9    15    16   ar
    10    16     1    1
    11     1     2   ar
    12     2     3   ar
    13     3     4   ar
    14     4    20    1
    15    20    21   am
    16    21    22    2
    17    21    23   am
    18    23    32    1
    19    32    33    1
    20    33    34    1
    21    23    25    1
    22    25    26   ar
    23    26    27   ar
    24    27    28   ar
    25    28    29   ar
    26    29    30   ar
    27    30    31    1
    28     4     5   ar
    29     5     6   ar
    30    16    17   ar
    31    17     8   ar
    32    17    11   ar
    33     6     1   ar
    34    30    25   ar
    35    10    18    1
    36    14    19    1
    37    20    24    1
    38    34    35    1
@<TRIPOS>MOLECULE
*****
 35 38 0 0 0
SMALL
GASTEIGER

@<TRIPOS>ATOM
      1 C         -26.1187   50.6040  -10.0214 C.ar    1  UNL1        0.0179
      2 C         -25.5757   50.9400   -8.7740 C.ar    1  UNL1        0.0028
      3 C         -24.2676   51.4251   -8.6826 C.ar    1  UNL1        0.0148
      4 C         -23.4859   51.5825   -9.8410 C.ar    1  UNL1        0.0516
      5 C         -24.0511   51.2912  -11.0912 C.ar    1  UNL1        0.0148
      6 C         -25.3584   50.8056  -11.1820 C.ar    1  UNL1        0.0028
      7 C         -25.8821   47.7870   -8.4057 C.3     1  UNL1        0.0327
      8 C         -27.2916   47.8557   -8.9026 C.ar    1  UNL1       -0.0005
      9 C         -28.2680   46.8823   -8.7022 C.ar    1  UNL1        0.0693
     10 N         -29.4438   47.2714   -9.2432 N.ar    1  UNL1       -0.3376
     11 C         -29.2112   48.4757   -9.7871 C.ar    1  UNL1        0.1438
     12 N         -30.1333   49.2603  -10.3938 N.ar    1  UNL1       -0.2042
     13 C         -29.7440   50.4826  -10.8583 C.ar    1  UNL1        0.1876
     14 S         -30.9328   51.5475  -11.6580 S.3     1  UNL1       -0.1034
     15 N         -28.4477   50.8976  -10.7157 N.ar    1  UNL1       -0.2213
     16 C         -27.5036   50.1161  -10.1127 C.ar    1  UNL1        0.0860
     17 C         -27.9119   48.8686   -9.6224 C.ar    1  UNL1        0.0492
     18 H         -30.3485   46.7504   -9.2230 H       1  UNL1        0.1674
     19 H         -31.2875   52.1542  -10.4387 H       1  UNL1        0.1101
     20 N         -22.1463   52.0997   -9.7766 N.am    1  UNL1       -0.2679
     21 C         -21.8189   53.4949   -9.9222 C.2     1  UNL1        0.3115
     22 O         -22.7421   54.3542   -9.9583 O.2     1  UNL1       -0.2519
     23 N         -20.4431   53.9266  -10.0063 N.am    1  UNL1       -0.2396
     24 H         -21.3893   51.4265   -9.5247 H       1  UNL1        0.1564
     25 C         -19.3689   53.0493   -9.6272 C.ar    1  UNL1        0.0659
     26 C         -18.5714   52.4626  -10.6215 C.ar    1  UNL1        0.0158
     27 C         -17.5243   51.6057  -10.2721 C.ar    1  UNL1        0.0013
     28 C         -17.2641   51.3312   -8.9276 C.ar    1  UNL1        0.0009
     29 C         -18.0486   51.9149   -7.9294 C.ar    1  UNL1        0.0127
     30 C         -19.0996   52.7747   -8.2707 C.ar    1  UNL1        0.0714
     31 CL        -20.0495   53.5064   -6.9840 Cl      1  UNL1       -0.0809
     32 C         -20.1196   55.3009  -10.4110 C.3     1  UNL1        0.1314
     33 C         -20.0394   56.2140   -9.1867 C.3     1  UNL1        0.1590
     34 O         -21.0373   57.1961   -9.2474 O.3     1  UNL1       -0.3802
     35 H         -21.8883   56.7520   -8.9934 H       1  UNL1        0.2105
@<TRIPOS>BOND
     1     7     8    1
     2     8     9   ar
     3     9    10   ar
     4    10    11   ar
     5    11    12   ar
     6    12    13   ar
     7    13    14    1
     8    13    15   ar
     9    15    16   ar
    10    16     1    1
    11     1     2   ar
    12     2     3   ar
    13     3     4   ar
    14     4    20    1
    15    20    21   am
    16    21    22    2
    17    21    23   am
    18    23    32    1
    19    32    33    1
    20    33    34    1
    21    23    25    1
    22    25    26   ar
    23    26    27   ar
    24    27    28   ar
    25    28    29   ar
    26    29    30   ar
    27    30    31    1
    28     4     5   ar
    29     5     6   ar
    30    16    17   ar
    31    17     8   ar
    32    17    11   ar
    33     6     1   ar
    34    30    25   ar
    35    10    18    1
    36    14    19    1
    37    20    24    1
    38    34    35    1
@<TRIPOS>MOLECULE
*****
 35 38 0 0 0
SMALL
GASTEIGER

@<TRIPOS>ATOM
      1 C         -26.2556   50.2575   -9.1512 C.ar    1  UNL1        0.0179
      2 C         -25.4157   50.1399   -8.0355 C.ar    1  UNL1        0.0028
      3 C         -24.1229   50.6710   -8.0678 C.ar    1  UNL1        0.0148
      4 C         -23.6541   51.3297   -9.2185 C.ar    1  UNL1        0.0516
      5 C         -24.5158   51.4875  -10.3139 C.ar    1  UNL1        0.0148
      6 C         -25.8078   50.9558  -10.2814 C.ar    1  UNL1        0.0028
      7 C         -27.5909   52.1762   -6.8844 C.3     1  UNL1        0.0327
      8 C         -28.6484   51.1851   -7.2552 C.ar    1  UNL1       -0.0005
      9 C         -29.9276   51.1242   -6.7066 C.ar    1  UNL1        0.0693
     10 N         -30.6477   50.1404   -7.2900 N.ar    1  UNL1       -0.3376
     11 C         -29.8293   49.5798   -8.1934 C.ar    1  UNL1        0.1438
     12 N         -30.1598   48.5819   -9.0473 N.ar    1  UNL1       -0.2042
     13 C         -29.2217   48.1505   -9.9390 C.ar    1  UNL1        0.1876
     14 S         -29.6224   46.8414  -11.0846 S.3     1  UNL1       -0.1034
     15 N         -27.9749   48.7144   -9.9607 N.ar    1  UNL1       -0.2213
     16 C         -27.6228   49.7167   -9.1020 C.ar    1  UNL1        0.0860
     17 C         -28.5949   50.1678   -8.1993 C.ar    1  UNL1        0.0492
     18 H         -31.6406   49.8853   -7.0915 H       1  UNL1        0.1674
     19 H         -30.0805   47.7564  -12.0508 H       1  UNL1        0.1101
     20 N         -22.3372   51.9036   -9.2696 N.am    1  UNL1       -0.2679
     21 C         -22.0673   53.2513   -9.7009 C.2     1  UNL1        0.3115
     22 O         -23.0252   54.0461   -9.9076 O.2     1  UNL1       -0.2519
     23 N         -20.7103   53.7125   -9.8798 N.am    1  UNL1       -0.2396
     24 H         -21.5538   51.3283   -8.8889 H       1  UNL1        0.1564
     25 C         -19.6019   52.9767   -9.3345 C.ar    1  UNL1        0.0659
     26 C         -19.3609   53.0121   -7.9527 C.ar    1  UNL1        0.0158
     27 C         -18.2873   52.3050   -7.4051 C.ar    1  UNL1        0.0013
     28 C         -17.4487   51.5550   -8.2327 C.ar    1  UNL1        0.0009
     29 C         -17.6834   51.5082   -9.6095 C.ar    1  UNL1        0.0127
     30 C         -18.7570   52.2136  -10.1664 C.ar    1  UNL1        0.0714
     31 CL        -19.0316   52.1112  -11.9006 Cl      1  UNL1       -0.0809
     32 C         -20.4427   54.9862  -10.5604 C.3     1  UNL1        0.1314
     33 C         -20.1227   56.0803   -9.5408 C.3     1  UNL1        0.1590
     34 O         -21.2165   56.9444   -9.3964 O.3     1  UNL1       -0.3802
     35 H         -21.8826   56.4675   -8.8353 H       1  UNL1        0.2105
@<TRIPOS>BOND
     1     7     8    1
     2     8     9   ar
     3     9    10   ar
     4    10    11   ar
     5    11    12   ar
     6    12    13   ar
     7    13    14    1
     8    13    15   ar
     9    15    16   ar
    10    16     1    1
    11     1     2   ar
    12     2     3   ar
    13     3     4   ar
    14     4    20    1
    15    20    21   am
    16    21    22    2
    17    21    23   am
    18    23    32    1
    19    32    33    1
    20    33    34    1
    21    23    25    1
    22    25    26   ar
    23    26    27   ar
    24    27    28   ar
    25    28    29   ar
    26    29    30   ar
    27    30    31    1
    28     4     5   ar
    29     5     6   ar
    30    16    17   ar
    31    17     8   ar
    32    17    11   ar
    33     6     1   ar
    34    30    25   ar
    35    10    18    1
    36    14    19    1
    37    20    24    1
    38    34    35    1
@<TRIPOS>MOLECULE
*****
 35 38 0 0 0
SMALL
GASTEIGER

@<TRIPOS>ATOM
      1 C         -25.9586   49.6335   -8.3997 C.ar    1  UNL1        0.0179
      2 C         -26.0767   48.2411   -8.5062 C.ar    1  UNL1        0.0028
      3 C         -26.4798   47.4819   -7.4036 C.ar    1  UNL1        0.0148
      4 C         -26.7724   48.1081   -6.1788 C.ar    1  UNL1        0.0516
      5 C         -26.6999   49.5061   -6.0919 C.ar    1  UNL1        0.0148
      6 C         -26.2963   50.2645   -7.1942 C.ar    1  UNL1        0.0028
      7 C         -28.8236   50.0016   -9.9026 C.3     1  UNL1        0.0327
      8 C         -27.8097   50.6489  -10.7920 C.ar    1  UNL1       -0.0005
      9 C         -28.0796   51.2618  -12.0137 C.ar    1  UNL1        0.0693
     10 N         -26.9504   51.7832  -12.5426 N.ar    1  UNL1       -0.3376
     11 C         -25.9747   51.4961  -11.6676 C.ar    1  UNL1        0.1438
     12 N         -24.6799   51.8784  -11.7741 N.ar    1  UNL1       -0.2042
     13 C         -23.8169   51.5413  -10.7727 C.ar    1  UNL1        0.1876
     14 S         -22.1038   52.0331  -10.8749 S.3     1  UNL1       -0.1034
     15 N         -24.2556   50.8281   -9.6903 N.ar    1  UNL1       -0.2213
     16 C         -25.5563   50.4285   -9.5703 C.ar    1  UNL1        0.0860
     17 C         -26.4426   50.7913  -10.5933 C.ar    1  UNL1        0.0492
     18 H         -26.8622   52.3158  -13.4364 H       1  UNL1        0.1674
     19 H         -22.3585   53.2469  -10.2097 H       1  UNL1        0.1101
     20 N         -27.2098   47.3529   -5.0366 N.am    1  UNL1       -0.2679
     21 C         -26.4639   46.2609   -4.4654 C.2     1  UNL1        0.3115
     22 O         -25.2918   46.0248   -4.8684 O.2     1  UNL1       -0.2519
     23 N         -27.0337   45.4437   -3.4196 N.am    1  UNL1       -0.2396
     24 H         -28.0752   47.6811   -4.5539 H       1  UNL1        0.1564
     25 C         -28.1990   45.8754   -2.6965 C.ar    1  UNL1        0.0659
     26 C         -29.3100   45.0235   -2.6031 C.ar    1  UNL1        0.0158
     27 C         -30.4521   45.4269   -1.9063 C.ar    1  UNL1        0.0013
     28 C         -30.4918   46.6821   -1.2951 C.ar    1  UNL1        0.0009
     29 C         -29.3885   47.5358   -1.3772 C.ar    1  UNL1        0.0127
     30 C         -28.2401   47.1395   -2.0732 C.ar    1  UNL1        0.0714
     31 CL        -26.8647   48.2340   -2.1345 Cl      1  UNL1       -0.0809
     32 C         -26.3857   44.1864   -3.0237 C.3     1  UNL1        0.1314
     33 C         -25.3204   44.4465   -1.9576 C.3     1  UNL1        0.1590
     34 O         -24.2234   45.1130   -2.5199 O.3     1  UNL1       -0.3802
     35 H         -24.4949   46.0614   -2.6326 H       1  UNL1        0.2105
@<TRIPOS>BOND
     1     7     8    1
     2     8     9   ar
     3     9    10   ar
     4    10    11   ar
     5    11    12   ar
     6    12    13   ar
     7    13    14    1
     8    13    15   ar
     9    15    16   ar
    10    16     1    1
    11     1     2   ar
    12     2     3   ar
    13     3     4   ar
    14     4    20    1
    15    20    21   am
    16    21    22    2
    17    21    23   am
    18    23    32    1
    19    32    33    1
    20    33    34    1
    21    23    25    1
    22    25    26   ar
    23    26    27   ar
    24    27    28   ar
    25    28    29   ar
    26    29    30   ar
    27    30    31    1
    28     4     5   ar
    29     5     6   ar
    30    16    17   ar
    31    17     8   ar
    32    17    11   ar
    33     6     1   ar
    34    30    25   ar
    35    10    18    1
    36    14    19    1
    37    20    24    1
    38    34    35    1
