@<TRIPOS>MOLECULE
*****
 48 53 0 0 0
SMALL
GASTEIGER

@<TRIPOS>ATOM
      1 C          60.2272   87.3059    8.1835 C.2     1  UNL1        0.2839
      2 O          61.3329   87.8880    8.3492 O.2     1  UNL1       -0.2665
      3 N          59.3020   87.7782    7.1907 N.am    1  UNL1       -0.2766
      4 H          58.3011   87.4891    7.2766 H       1  UNL1        0.1553
      5 C          60.7494   84.2036    7.5748 C.3     1  UNL1        0.0345
      6 C          60.0924   84.8064    8.7801 C.ar    1  UNL1        0.0202
      7 C          59.8617   86.1603    9.0378 C.ar    1  UNL1        0.1946
      8 O          59.2395   86.2990   10.1937 O.2     1  UNL1       -0.4490
      9 C          59.0543   85.1060   10.7074 C.ar    1  UNL1        0.1514
     10 C          58.4248   84.7794   11.9149 C.ar    1  UNL1        0.1099
     11 C          58.3029   83.4067   12.2286 C.ar    1  UNL1        0.0095
     12 C          58.8207   82.4051   11.3657 C.ar    1  UNL1        0.0004
     13 C          59.4600   82.7858   10.1648 C.ar    1  UNL1        0.0028
     14 C          59.5561   84.1443    9.8684 C.ar    1  UNL1        0.0339
     15 C          58.6905   80.9691   11.7203 C.ar    1  UNL1        0.0000
     16 C          59.0844   80.5071   12.9906 C.ar    1  UNL1        0.0000
     17 C          58.9606   79.1544   13.3219 C.ar    1  UNL1        0.0000
     18 C          58.4426   78.2496   12.3926 C.ar    1  UNL1        0.0000
     19 C          58.0474   78.6956   11.1295 C.ar    1  UNL1        0.0000
     20 C          58.1698   80.0470   10.7924 C.ar    1  UNL1        0.0000
     21 C          57.8733   85.8111   12.8234 C.2     1  UNL1        0.3410
     22 O          57.0504   85.4784   13.7174 O.2     1  UNL1       -0.2450
     23 O          58.2578   87.1479   12.7345 O.3     1  UNL1       -0.4770
     24 H          59.0045   87.4580   12.1266 H       1  UNL1        0.2954
     25 C          59.6423   88.7149    6.1541 C.ar    1  UNL1        0.0702
     26 C          58.6438   89.5202    5.5930 C.ar    1  UNL1        0.0191
     27 C          58.9554   90.4172    4.5704 C.ar    1  UNL1        0.0356
     28 C          60.2747   90.4999    4.1014 C.ar    1  UNL1        0.1318
     29 N          61.2232   89.6802    4.6342 N.ar    1  UNL1       -0.2279
     30 C          60.9438   88.8016    5.6331 C.ar    1  UNL1        0.1149
     31 N          60.6248   91.4054    3.0384 N.pl3   1  UNL1       -0.2932
     32 C          61.9039   91.2396    2.3365 C.3     1  UNL1        0.0923
     33 C          61.7481   91.6002    0.8550 C.3     1  UNL1        0.0252
     34 C          61.1082   92.9927    0.6913 C.3     1  UNL1        0.0472
     35 C          59.7555   93.0460    1.4256 C.3     1  UNL1        0.0252
     36 C          59.9332   92.6955    2.9048 C.3     1  UNL1        0.0923
     37 C          60.9882   93.3836   -0.7958 C.3     1  UNL1        0.2054
     38 O          60.1841   92.4588   -1.5344 O.3     1  UNL1       -0.4755
     39 C          58.7867   92.4900   -1.6820 C.ar    1  UNL1        0.1388
     40 C          58.1703   93.7429   -1.7673 C.ar    1  UNL1        0.0369
     41 C          56.7871   93.8459   -1.9201 C.ar    1  UNL1        0.0033
     42 C          56.0011   92.6945   -1.9869 C.ar    1  UNL1        0.0066
     43 C          56.5943   91.4233   -1.8974 C.ar    1  UNL1        0.0785
     44 C          57.9892   91.3281   -1.7395 C.ar    1  UNL1        0.0433
     45 C          55.7647   90.1995   -1.9696 C.2     1  UNL1        0.3381
     46 O          56.3067   89.0614   -2.0013 O.2     1  UNL1       -0.2451
     47 O          54.3755   90.2929   -2.0016 O.3     1  UNL1       -0.4771
     48 H          53.7989   89.4614   -2.0501 H       1  UNL1        0.2954
@<TRIPOS>BOND
     1     5     6    1
     2     6     7   ar
     3     7     1    1
     4     1     2    2
     5     1     3   am
     6     3    25    1
     7    25    26   ar
     8    26    27   ar
     9    27    28   ar
    10    28    31    1
    11    31    32    1
    12    32    33    1
    13    33    34    1
    14    34    37    1
    15    37    38    1
    16    38    39    1
    17    39    40   ar
    18    40    41   ar
    19    41    42   ar
    20    42    43   ar
    21    43    45    1
    22    45    46    2
    23    45    47    1
    24    43    44   ar
    25    34    35    1
    26    35    36    1
    27    28    29   ar
    28    29    30   ar
    29     7     8   ar
    30     8     9   ar
    31     9    10   ar
    32    10    21    1
    33    21    22    2
    34    21    23    1
    35    10    11   ar
    36    11    12   ar
    37    12    15    1
    38    15    16   ar
    39    16    17   ar
    40    17    18   ar
    41    18    19   ar
    42    19    20   ar
    43    12    13   ar
    44    13    14   ar
    45    14     6   ar
    46    30    25   ar
    47    14     9   ar
    48    36    31    1
    49    20    15   ar
    50    44    39   ar
    51     3     4    1
    52    47    48    1
    53    23    24    1
