@<TRIPOS>MOLECULE
*****
 37 41 0 0 0
SMALL
GASTEIGER

@<TRIPOS>ATOM
      1 C         -23.2645   -6.3851  -11.4804 C.2     1  UNL1        0.2490
      2 O         -22.8471   -5.1945  -11.5023 O.2     1  UNL1       -0.2699
      3 N         -22.3779   -7.4292  -11.0222 N.am    1  UNL1       -0.2751
      4 C         -20.9356   -7.2704  -11.2692 C.3     1  UNL1        0.0954
      5 C         -20.1465   -8.5592  -10.9802 C.3     1  UNL1        0.0399
      6 C         -20.9564   -9.8298  -11.3229 C.3     1  UNL1        0.0645
      7 C         -21.2826   -9.8339  -12.8625 C.3     1  UNL1        0.0477
      8 C         -21.6865  -11.1989  -13.3280 C.ar    1  UNL1        0.0220
      9 C         -22.2791  -11.6011  -14.5028 C.ar    1  UNL1        0.0923
     10 N         -22.2057  -12.9563  -14.5661 N.ar    1  UNL1       -0.2534
     11 N         -21.5467  -13.4114  -13.5039 N.ar    1  UNL1       -0.1651
     12 C         -21.2358  -12.3438  -12.7495 C.ar    1  UNL1        0.1515
     13 C         -20.4025  -12.3038  -11.5576 C.2     1  UNL1        0.2650
     14 O         -19.8984  -13.3520  -11.0750 O.2     1  UNL1       -0.2684
     15 N         -20.1443  -11.0195  -10.9679 N.am    1  UNL1       -0.3023
     16 C         -22.2653   -9.8659  -10.4727 C.3     1  UNL1        0.0408
     17 C         -22.8596   -8.4779  -10.1038 C.3     1  UNL1        0.1064
     18 H         -19.5004  -10.9774  -10.1451 H       1  UNL1        0.1497
     19 C         -27.1897   -5.3494  -14.3485 C.ar    1  UNL1        0.2248
     20 N         -28.4536   -5.6558  -14.7561 N.ar    1  UNL1       -0.2101
     21 C         -29.1490   -6.6998  -14.2341 C.ar    1  UNL1        0.1021
     22 C         -28.5724   -7.5073  -13.2534 C.ar    1  UNL1        0.0209
     23 C         -27.2743   -7.2280  -12.8086 C.ar    1  UNL1        0.0060
     24 C         -26.6631   -8.0301  -11.8355 C.ar    1  UNL1        0.0003
     25 C         -25.3607   -7.7536  -11.4116 C.ar    1  UNL1        0.0045
     26 C         -24.6467   -6.6680  -11.9481 C.ar    1  UNL1        0.0537
     27 C         -25.2742   -5.8440  -12.8990 C.ar    1  UNL1        0.0092
     28 C         -26.5726   -6.1284  -13.3516 C.ar    1  UNL1        0.0534
     29 C         -26.6457   -3.9123  -16.2947 C.3     1  UNL1        0.2542
     30 O         -26.5023   -4.2752  -14.9274 O.3     1  UNL1       -0.4561
     31 C         -22.6102  -13.8292  -15.6878 C.3     1  UNL1        0.0867
     32 C         -23.0779  -15.2168  -15.1952 C.3     1  UNL1        0.0244
     33 C         -23.7625  -13.1546  -16.4520 C.3     1  UNL1        0.0244
     34 C         -21.4109  -14.0245  -16.6358 C.3     1  UNL1        0.0244
     35 C         -22.5709   -8.0846   -8.6401 C.3     1  UNL1        0.1569
     36 O         -23.7322   -8.1914   -7.8612 O.3     1  UNL1       -0.3802
     37 H         -23.8961   -9.1610   -7.7252 H       1  UNL1        0.2105
@<TRIPOS>BOND
     1    29    30    1
     2    30    19    1
     3    19    20   ar
     4    20    21   ar
     5    21    22   ar
     6    22    23   ar
     7    23    24   ar
     8    24    25   ar
     9    25    26   ar
    10    26     1    1
    11     1     2    2
    12     1     3   am
    13     3     4    1
    14     4     5    1
    15     5     6    1
    16     6     7    1
    17     7     8    1
    18     8     9   ar
    19     9    10   ar
    20    10    31    1
    21    31    32    1
    22    31    33    1
    23    31    34    1
    24    10    11   ar
    25    11    12   ar
    26    12    13    1
    27    13    14    2
    28    13    15   am
    29     6    16    1
    30    16    17    1
    31    17    35    1
    32    35    36    1
    33    26    27   ar
    34    27    28   ar
    35    28    19   ar
    36    28    23   ar
    37    17     3    1
    38    15     6    1
    39    12     8   ar
    40    15    18    1
    41    36    37    1
@<TRIPOS>MOLECULE
*****
 37 41 0 0 0
SMALL
GASTEIGER

@<TRIPOS>ATOM
      1 C         -23.1115   -6.2938  -11.5881 C.2     1  UNL1        0.2490
      2 O         -22.6715   -5.1125  -11.6436 O.2     1  UNL1       -0.2699
      3 N         -22.2437   -7.3419  -11.1038 N.am    1  UNL1       -0.2751
      4 C         -20.7993   -7.2176  -11.3585 C.3     1  UNL1        0.0954
      5 C         -20.0342   -8.5129  -11.0363 C.3     1  UNL1        0.0399
      6 C         -20.8693   -9.7766  -11.3421 C.3     1  UNL1        0.0645
      7 C         -21.2001   -9.8165  -12.8802 C.3     1  UNL1        0.0477
      8 C         -21.6314  -11.1857  -13.3071 C.ar    1  UNL1        0.0220
      9 C         -22.2352  -11.6084  -14.4691 C.ar    1  UNL1        0.0923
     10 N         -22.1878  -12.9660  -14.4954 N.ar    1  UNL1       -0.2534
     11 N         -21.5345  -13.4045  -13.4228 N.ar    1  UNL1       -0.1651
     12 C         -21.2010  -12.3229  -12.6986 C.ar    1  UNL1        0.1515
     13 C         -20.3635  -12.2663  -11.5103 C.2     1  UNL1        0.2650
     14 O         -19.8781  -13.3104  -11.0005 O.2     1  UNL1       -0.2684
     15 N         -20.0790  -10.9716  -10.9567 N.am    1  UNL1       -0.3023
     16 C         -22.1761   -9.7644  -10.4880 C.3     1  UNL1        0.0408
     17 C         -22.7427   -8.3556  -10.1558 C.3     1  UNL1        0.1064
     18 H         -19.4320  -10.9194  -10.1369 H       1  UNL1        0.1497
     19 C         -27.6871   -8.0698  -10.8032 C.ar    1  UNL1        0.2248
     20 N         -28.9532   -8.2830  -11.2605 N.ar    1  UNL1       -0.2101
     21 C         -29.3407   -7.9227  -12.5118 C.ar    1  UNL1        0.1021
     22 C         -28.4367   -7.3045  -13.3762 C.ar    1  UNL1        0.0209
     23 C         -27.1264   -7.0649  -12.9442 C.ar    1  UNL1        0.0060
     24 C         -26.2003   -6.4324  -13.7843 C.ar    1  UNL1        0.0003
     25 C         -24.9004   -6.1818  -13.3371 C.ar    1  UNL1        0.0045
     26 C         -24.5003   -6.5628  -12.0445 C.ar    1  UNL1        0.0537
     27 C         -25.4208   -7.2281  -11.2156 C.ar    1  UNL1        0.0092
     28 C         -26.7371   -7.4611  -11.6450 C.ar    1  UNL1        0.0534
     29 C         -26.5480   -9.5873   -9.2068 C.3     1  UNL1        0.2542
     30 O         -27.3359   -8.4403   -9.4991 O.3     1  UNL1       -0.4561
     31 C         -22.6123  -13.8612  -15.5918 C.3     1  UNL1        0.0867
     32 C         -22.9744  -15.2711  -15.0738 C.3     1  UNL1        0.0244
     33 C         -23.8433  -13.2506  -16.2838 C.3     1  UNL1        0.0244
     34 C         -21.4640  -13.9939  -16.6110 C.3     1  UNL1        0.0244
     35 C         -22.4421   -7.9281   -8.7041 C.3     1  UNL1        0.1569
     36 O         -23.5601   -8.1406   -7.8846 O.3     1  UNL1       -0.3802
     37 H         -23.6258   -9.1207   -7.7405 H       1  UNL1        0.2105
@<TRIPOS>BOND
     1    29    30    1
     2    30    19    1
     3    19    20   ar
     4    20    21   ar
     5    21    22   ar
     6    22    23   ar
     7    23    24   ar
     8    24    25   ar
     9    25    26   ar
    10    26     1    1
    11     1     2    2
    12     1     3   am
    13     3     4    1
    14     4     5    1
    15     5     6    1
    16     6     7    1
    17     7     8    1
    18     8     9   ar
    19     9    10   ar
    20    10    31    1
    21    31    32    1
    22    31    33    1
    23    31    34    1
    24    10    11   ar
    25    11    12   ar
    26    12    13    1
    27    13    14    2
    28    13    15   am
    29     6    16    1
    30    16    17    1
    31    17    35    1
    32    35    36    1
    33    26    27   ar
    34    27    28   ar
    35    28    19   ar
    36    28    23   ar
    37    17     3    1
    38    15     6    1
    39    12     8   ar
    40    15    18    1
    41    36    37    1
@<TRIPOS>MOLECULE
*****
 37 41 0 0 0
SMALL
GASTEIGER

@<TRIPOS>ATOM
      1 C         -22.6741   -6.0485  -11.1769 C.2     1  UNL1        0.2490
      2 O         -22.1182   -4.9220  -11.0571 O.2     1  UNL1       -0.2699
      3 N         -21.9619   -7.2296  -10.7484 N.am    1  UNL1       -0.2751
      4 C         -20.4947   -7.2342  -10.8663 C.3     1  UNL1        0.0954
      5 C         -19.8929   -8.6312  -10.6357 C.3     1  UNL1        0.0399
      6 C         -20.8142   -9.7577  -11.1555 C.3     1  UNL1        0.0645
      7 C         -21.0006   -9.5956  -12.7098 C.3     1  UNL1        0.0477
      8 C         -21.5208  -10.8565  -13.3283 C.ar    1  UNL1        0.0220
      9 C         -22.0503  -11.0842  -14.5777 C.ar    1  UNL1        0.0923
     10 N         -22.1329  -12.4281  -14.7588 N.ar    1  UNL1       -0.2534
     11 N         -21.6294  -13.0474  -13.6945 N.ar    1  UNL1       -0.1651
     12 C         -21.2623  -12.0923  -12.8236 C.ar    1  UNL1        0.1515
     13 C         -20.5391  -12.2544  -11.5716 C.2     1  UNL1        0.2650
     14 O         -20.2078  -13.3935  -11.1491 O.2     1  UNL1       -0.2684
     15 N         -20.1837  -11.0651  -10.8485 N.am    1  UNL1       -0.3023
     16 C         -22.1884   -9.6977  -10.4169 C.3     1  UNL1        0.0408
     17 C         -22.6442   -8.2804   -9.9702 C.3     1  UNL1        0.1064
     18 H         -19.6150  -11.1713   -9.9776 H       1  UNL1        0.1497
     19 C         -26.4023   -8.6077  -13.2401 C.ar    1  UNL1        0.2248
     20 N         -27.6584   -8.6230  -13.7688 N.ar    1  UNL1       -0.2101
     21 C         -28.4053   -7.4948  -13.8918 C.ar    1  UNL1        0.1021
     22 C         -27.8991   -6.2673  -13.4634 C.ar    1  UNL1        0.0209
     23 C         -26.6133   -6.2086  -12.9119 C.ar    1  UNL1        0.0060
     24 C         -26.0836   -4.9929  -12.4591 C.ar    1  UNL1        0.0003
     25 C         -24.8065   -4.9483  -11.8938 C.ar    1  UNL1        0.0045
     26 C         -24.0332   -6.1161  -11.7750 C.ar    1  UNL1        0.0537
     27 C         -24.5527   -7.3288  -12.2613 C.ar    1  UNL1        0.0092
     28 C         -25.8451   -7.3898  -12.8067 C.ar    1  UNL1        0.0534
     29 C         -25.4464  -10.6828  -14.2040 C.3     1  UNL1        0.2542
     30 O         -25.6748   -9.7978  -13.1148 O.3     1  UNL1       -0.4561
     31 C         -22.5370  -13.1491  -15.9838 C.3     1  UNL1        0.0867
     32 C         -23.8865  -13.8789  -15.8014 C.3     1  UNL1        0.0244
     33 C         -22.6664  -12.1378  -17.1359 C.3     1  UNL1        0.0244
     34 C         -21.4593  -14.1929  -16.3362 C.3     1  UNL1        0.0244
     35 C         -22.4419   -8.0469   -8.4586 C.3     1  UNL1        0.1569
     36 O         -23.6683   -8.1050   -7.7808 O.3     1  UNL1       -0.3802
     37 H         -23.9316   -9.0617   -7.7496 H       1  UNL1        0.2105
@<TRIPOS>BOND
     1    29    30    1
     2    30    19    1
     3    19    20   ar
     4    20    21   ar
     5    21    22   ar
     6    22    23   ar
     7    23    24   ar
     8    24    25   ar
     9    25    26   ar
    10    26     1    1
    11     1     2    2
    12     1     3   am
    13     3     4    1
    14     4     5    1
    15     5     6    1
    16     6     7    1
    17     7     8    1
    18     8     9   ar
    19     9    10   ar
    20    10    31    1
    21    31    32    1
    22    31    33    1
    23    31    34    1
    24    10    11   ar
    25    11    12   ar
    26    12    13    1
    27    13    14    2
    28    13    15   am
    29     6    16    1
    30    16    17    1
    31    17    35    1
    32    35    36    1
    33    26    27   ar
    34    27    28   ar
    35    28    19   ar
    36    28    23   ar
    37    17     3    1
    38    15     6    1
    39    12     8   ar
    40    15    18    1
    41    36    37    1
@<TRIPOS>MOLECULE
*****
 37 41 0 0 0
SMALL
GASTEIGER

@<TRIPOS>ATOM
      1 C         -21.8253   -7.7447   -9.4112 C.2     1  UNL1        0.2490
      2 O         -22.4784   -7.3354   -8.4121 O.2     1  UNL1       -0.2699
      3 N         -22.2195   -7.3101  -10.7310 N.am    1  UNL1       -0.2751
      4 C         -23.6468   -7.0459  -10.9751 C.3     1  UNL1        0.0954
      5 C         -23.9604   -6.8582  -12.4696 C.3     1  UNL1        0.0399
      6 C         -23.0699   -7.7443  -13.3696 C.3     1  UNL1        0.0645
      7 C         -23.3436   -9.2577  -13.0358 C.3     1  UNL1        0.0477
      8 C         -22.8431  -10.1531  -14.1271 C.ar    1  UNL1        0.0220
      9 C         -22.6519  -11.5156  -14.1451 C.ar    1  UNL1        0.0923
     10 N         -22.4355  -11.8909  -15.4328 N.ar    1  UNL1       -0.2534
     11 N         -22.5345  -10.8262  -16.2241 N.ar    1  UNL1       -0.1651
     12 C         -22.7772   -9.7698  -15.4299 C.ar    1  UNL1        0.1515
     13 C         -23.0973   -8.4074  -15.8276 C.2     1  UNL1        0.2650
     14 O         -23.1369   -8.0710  -17.0405 O.2     1  UNL1       -0.2684
     15 N         -23.4023   -7.4640  -14.7880 N.am    1  UNL1       -0.3023
     16 C         -21.5678   -7.3833  -13.1439 C.3     1  UNL1        0.0408
     17 C         -21.2093   -6.8825  -11.7168 C.3     1  UNL1        0.1064
     18 H         -23.6884   -6.4985  -15.0695 H       1  UNL1        0.1497
     19 C         -18.2091   -9.6027   -6.5516 C.ar    1  UNL1        0.2248
     20 N         -17.1820  -10.4839   -6.3904 N.ar    1  UNL1       -0.2101
     21 C         -16.7993  -11.3372   -7.3759 C.ar    1  UNL1        0.1021
     22 C         -17.4669  -11.3398   -8.6010 C.ar    1  UNL1        0.0209
     23 C         -18.5296  -10.4514   -8.8066 C.ar    1  UNL1        0.0060
     24 C         -19.2288  -10.4409  -10.0210 C.ar    1  UNL1        0.0003
     25 C         -20.2994   -9.5629  -10.2095 C.ar    1  UNL1        0.0045
     26 C         -20.6880   -8.6760   -9.1905 C.ar    1  UNL1        0.0537
     27 C         -19.9634   -8.6642   -7.9856 C.ar    1  UNL1        0.0092
     28 C         -18.9031   -9.5603   -7.7756 C.ar    1  UNL1        0.0534
     29 C         -17.7481   -7.7088   -5.0189 C.3     1  UNL1        0.2542
     30 O         -18.5823   -8.7540   -5.5020 O.3     1  UNL1       -0.4561
     31 C         -22.2880  -13.2641  -15.9585 C.3     1  UNL1        0.0867
     32 C         -23.6361  -14.0184  -15.9792 C.3     1  UNL1        0.0244
     33 C         -21.7331  -13.1909  -17.3915 C.3     1  UNL1        0.0244
     34 C         -21.3034  -14.0450  -15.0664 C.3     1  UNL1        0.0244
     35 C         -21.0179   -5.3526  -11.6612 C.3     1  UNL1        0.1569
     36 O         -20.9933   -4.9054  -10.3322 O.3     1  UNL1       -0.3802
     37 H         -20.1164   -5.1789   -9.9556 H       1  UNL1        0.2105
@<TRIPOS>BOND
     1    29    30    1
     2    30    19    1
     3    19    20   ar
     4    20    21   ar
     5    21    22   ar
     6    22    23   ar
     7    23    24   ar
     8    24    25   ar
     9    25    26   ar
    10    26     1    1
    11     1     2    2
    12     1     3   am
    13     3     4    1
    14     4     5    1
    15     5     6    1
    16     6     7    1
    17     7     8    1
    18     8     9   ar
    19     9    10   ar
    20    10    31    1
    21    31    32    1
    22    31    33    1
    23    31    34    1
    24    10    11   ar
    25    11    12   ar
    26    12    13    1
    27    13    14    2
    28    13    15   am
    29     6    16    1
    30    16    17    1
    31    17    35    1
    32    35    36    1
    33    26    27   ar
    34    27    28   ar
    35    28    19   ar
    36    28    23   ar
    37    17     3    1
    38    15     6    1
    39    12     8   ar
    40    15    18    1
    41    36    37    1
@<TRIPOS>MOLECULE
*****
 37 41 0 0 0
SMALL
GASTEIGER

@<TRIPOS>ATOM
      1 C         -22.1500   -7.6466   -9.3216 C.2     1  UNL1        0.2490
      2 O         -22.8644   -7.2842   -8.3466 O.2     1  UNL1       -0.2699
      3 N         -22.5212   -7.2305  -10.6540 N.am    1  UNL1       -0.2751
      4 C         -23.9521   -7.0547  -10.9509 C.3     1  UNL1        0.0954
      5 C         -24.2208   -6.8791  -12.4555 C.3     1  UNL1        0.0399
      6 C         -23.2437   -7.7030  -13.3240 C.3     1  UNL1        0.0645
      7 C         -23.4343   -9.2323  -13.0052 C.3     1  UNL1        0.0477
      8 C         -22.8384  -10.0889  -14.0795 C.ar    1  UNL1        0.0220
      9 C         -22.5617  -11.4367  -14.0944 C.ar    1  UNL1        0.0923
     10 N         -22.2743  -11.7909  -15.3741 N.ar    1  UNL1       -0.2534
     11 N         -22.4102  -10.7303  -16.1655 N.ar    1  UNL1       -0.1651
     12 C         -22.7480   -9.6954  -15.3778 C.ar    1  UNL1        0.1515
     13 C         -23.1378   -8.3536  -15.7833 C.2     1  UNL1        0.2650
     14 O         -23.1530   -8.0139  -16.9957 O.2     1  UNL1       -0.2684
     15 N         -23.5398   -7.4366  -14.7531 N.am    1  UNL1       -0.3023
     16 C         -21.7766   -7.2501  -13.0410 C.3     1  UNL1        0.0408
     17 C         -21.5037   -6.7355  -11.6000 C.3     1  UNL1        0.1064
     18 H         -23.8751   -6.4893  -15.0423 H       1  UNL1        0.1497
     19 C         -19.3199  -11.5962  -10.3689 C.ar    1  UNL1        0.2248
     20 N         -18.2138  -12.3463  -10.1015 N.ar    1  UNL1       -0.2101
     21 C         -17.3578  -12.0387   -9.0923 C.ar    1  UNL1        0.1021
     22 C         -17.5885  -10.9192   -8.2924 C.ar    1  UNL1        0.0209
     23 C         -18.7127  -10.1204   -8.5356 C.ar    1  UNL1        0.0060
     24 C         -18.9629   -8.9814   -7.7585 C.ar    1  UNL1        0.0003
     25 C         -20.0777   -8.1809   -8.0211 C.ar    1  UNL1        0.0045
     26 C         -20.9658   -8.5062   -9.0611 C.ar    1  UNL1        0.0537
     27 C         -20.7319   -9.6683   -9.8172 C.ar    1  UNL1        0.0092
     28 C         -19.6005  -10.4651   -9.5794 C.ar    1  UNL1        0.0534
     29 C         -20.2038  -13.2423  -11.9993 C.3     1  UNL1        0.2542
     30 O         -20.1654  -11.9392  -11.4314 O.3     1  UNL1       -0.4561
     31 C         -22.0215  -13.1494  -15.8979 C.3     1  UNL1        0.0867
     32 C         -23.2441  -14.0746  -15.7069 C.3     1  UNL1        0.0244
     33 C         -21.6975  -13.0513  -17.3986 C.3     1  UNL1        0.0244
     34 C         -20.8207  -13.7644  -15.1529 C.3     1  UNL1        0.0244
     35 C         -21.4107   -5.1969  -11.5327 C.3     1  UNL1        0.1569
     36 O         -21.0218   -4.7806  -10.2511 O.3     1  UNL1       -0.3802
     37 H         -20.0558   -4.9921  -10.1636 H       1  UNL1        0.2105
@<TRIPOS>BOND
     1    29    30    1
     2    30    19    1
     3    19    20   ar
     4    20    21   ar
     5    21    22   ar
     6    22    23   ar
     7    23    24   ar
     8    24    25   ar
     9    25    26   ar
    10    26     1    1
    11     1     2    2
    12     1     3   am
    13     3     4    1
    14     4     5    1
    15     5     6    1
    16     6     7    1
    17     7     8    1
    18     8     9   ar
    19     9    10   ar
    20    10    31    1
    21    31    32    1
    22    31    33    1
    23    31    34    1
    24    10    11   ar
    25    11    12   ar
    26    12    13    1
    27    13    14    2
    28    13    15   am
    29     6    16    1
    30    16    17    1
    31    17    35    1
    32    35    36    1
    33    26    27   ar
    34    27    28   ar
    35    28    19   ar
    36    28    23   ar
    37    17     3    1
    38    15     6    1
    39    12     8   ar
    40    15    18    1
    41    36    37    1
