@<TRIPOS>MOLECULE
*****
 34 38 0 0 0
SMALL
GASTEIGER

@<TRIPOS>ATOM
      1 C         -23.1752   -9.2719  -14.4800 C.2     1  UNL1        0.2490
      2 O         -23.5198   -8.2823  -15.1824 O.2     1  UNL1       -0.2699
      3 N         -22.1568   -9.1029  -13.4759 N.am    1  UNL1       -0.2760
      4 C         -22.3555   -9.6041  -12.1122 C.3     1  UNL1        0.0954
      5 C         -22.4381   -8.4274  -11.1282 C.3     1  UNL1        0.0399
      6 C         -21.2723   -7.4079  -11.2816 C.3     1  UNL1        0.0645
      7 C         -21.1409   -6.9909  -12.7727 C.3     1  UNL1        0.0399
      8 C         -21.0281   -8.1991  -13.7077 C.3     1  UNL1        0.0954
      9 C         -19.9157   -8.0249  -10.7769 C.3     1  UNL1        0.0477
     10 C         -19.8678   -8.0602   -9.2802 C.ar    1  UNL1        0.0220
     11 C         -19.0708   -8.7807   -8.4215 C.ar    1  UNL1        0.0923
     12 N         -19.2848   -8.3136   -7.1654 N.ar    1  UNL1       -0.2534
     13 N         -20.1526   -7.3059   -7.2055 N.ar    1  UNL1       -0.1651
     14 C         -20.5060   -7.1531   -8.4931 C.ar    1  UNL1        0.1515
     15 C         -21.3819   -6.1465   -9.0703 C.2     1  UNL1        0.2650
     16 O         -21.9000   -5.2438   -8.3617 O.2     1  UNL1       -0.2684
     17 N         -21.6173   -6.2032  -10.4863 N.am    1  UNL1       -0.3023
     18 H         -22.2069   -5.4528  -10.9134 H       1  UNL1        0.1497
     19 C         -22.9134  -14.0907  -15.6492 C.ar    1  UNL1        0.2248
     20 N         -23.5482  -15.2791  -15.8558 N.ar    1  UNL1       -0.2101
     21 C         -24.8944  -15.4121  -15.7328 C.ar    1  UNL1        0.1021
     22 C         -25.6792  -14.3131  -15.3848 C.ar    1  UNL1        0.0209
     23 C         -25.0667  -13.0733  -15.1636 C.ar    1  UNL1        0.0060
     24 C         -25.8319  -11.9518  -14.8166 C.ar    1  UNL1        0.0003
     25 C         -25.2138  -10.7190  -14.5959 C.ar    1  UNL1        0.0045
     26 C         -23.8199  -10.5869  -14.7106 C.ar    1  UNL1        0.0537
     27 C         -23.0517  -11.7073  -15.0737 C.ar    1  UNL1        0.0092
     28 C         -23.6641  -12.9531  -15.2954 C.ar    1  UNL1        0.0534
     29 C         -20.6475  -13.8178  -14.6803 C.3     1  UNL1        0.2542
     30 O         -21.5226  -14.0027  -15.7865 O.3     1  UNL1       -0.4561
     31 C         -18.6053   -8.7806   -5.9404 C.3     1  UNL1        0.0867
     32 C         -19.6407   -8.9758   -4.8157 C.3     1  UNL1        0.0244
     33 C         -17.5585   -7.7464   -5.4725 C.3     1  UNL1        0.0244
     34 C         -17.8937  -10.1149   -6.2295 C.3     1  UNL1        0.0244
@<TRIPOS>BOND
     1    29    30    1
     2    30    19    1
     3    19    20   ar
     4    20    21   ar
     5    21    22   ar
     6    22    23   ar
     7    23    24   ar
     8    24    25   ar
     9    25    26   ar
    10    26     1    1
    11     1     2    2
    12     1     3   am
    13     3     4    1
    14     4     5    1
    15     5     6    1
    16     6     7    1
    17     7     8    1
    18     6     9    1
    19     9    10    1
    20    10    11   ar
    21    11    12   ar
    22    12    31    1
    23    31    32    1
    24    31    33    1
    25    31    34    1
    26    12    13   ar
    27    13    14   ar
    28    14    15    1
    29    15    16    2
    30    15    17   am
    31    26    27   ar
    32    27    28   ar
    33    28    19   ar
    34    28    23   ar
    35     8     3    1
    36    14    10   ar
    37    17     6    1
    38    17    18    1
@<TRIPOS>MOLECULE
*****
 34 38 0 0 0
SMALL
GASTEIGER

@<TRIPOS>ATOM
      1 C         -20.5928   -7.7388   -8.3380 C.2     1  UNL1        0.2490
      2 O         -20.6820   -6.4804   -8.3469 O.2     1  UNL1       -0.2699
      3 N         -21.4999   -8.5154   -9.1429 N.am    1  UNL1       -0.2760
      4 C         -21.0041   -9.5873  -10.0120 C.3     1  UNL1        0.0954
      5 C         -21.2315   -9.2152  -11.4849 C.3     1  UNL1        0.0399
      6 C         -22.6856   -8.7524  -11.7902 C.3     1  UNL1        0.0645
      7 C         -23.1025   -7.6504  -10.7772 C.3     1  UNL1        0.0399
      8 C         -22.8877   -8.0840   -9.3236 C.3     1  UNL1        0.0954
      9 C         -23.6892   -9.9615  -11.7090 C.3     1  UNL1        0.0477
     10 C         -23.5702  -10.8380  -12.9178 C.ar    1  UNL1        0.0220
     11 C         -23.9799  -12.1328  -13.1351 C.ar    1  UNL1        0.0923
     12 N         -23.8133  -12.4056  -14.4540 N.ar    1  UNL1       -0.2534
     13 N         -23.3530  -11.3249  -15.0788 N.ar    1  UNL1       -0.1651
     14 C         -23.2060  -10.3721  -14.1425 C.ar    1  UNL1        0.1515
     15 C         -22.7924   -8.9904  -14.3249 C.2     1  UNL1        0.2650
     16 O         -22.5468   -8.5248  -15.4689 O.2     1  UNL1       -0.2684
     17 N         -22.6966   -8.1649  -13.1531 N.am    1  UNL1       -0.3023
     18 H         -22.4470   -7.1581  -13.2845 H       1  UNL1        0.1497
     19 C         -17.7036   -7.8124   -4.3002 C.ar    1  UNL1        0.2248
     20 N         -16.7514   -8.4429   -3.5561 N.ar    1  UNL1       -0.2101
     21 C         -16.2055   -9.6284   -3.9325 C.ar    1  UNL1        0.1021
     22 C         -16.6132  -10.2447   -5.1153 C.ar    1  UNL1        0.0209
     23 C         -17.5895   -9.6304   -5.9094 C.ar    1  UNL1        0.0060
     24 C         -18.0146  -10.2258   -7.1046 C.ar    1  UNL1        0.0003
     25 C         -18.9899   -9.6080   -7.8906 C.ar    1  UNL1        0.0045
     26 C         -19.5627   -8.3885   -7.4926 C.ar    1  UNL1        0.0537
     27 C         -19.1266   -7.7816   -6.3015 C.ar    1  UNL1        0.0092
     28 C         -18.1473   -8.3967   -5.5021 C.ar    1  UNL1        0.0534
     29 C         -19.0798   -6.4758   -2.7295 C.3     1  UNL1        0.2542
     30 O         -18.2382   -6.5915   -3.8705 O.3     1  UNL1       -0.4561
     31 C         -24.1632  -13.6724  -15.1272 C.3     1  UNL1        0.0867
     32 C         -25.4387  -14.2612  -14.4934 C.3     1  UNL1        0.0244
     33 C         -23.0200  -14.6997  -14.9788 C.3     1  UNL1        0.0244
     34 C         -24.4023  -13.4048  -16.6243 C.3     1  UNL1        0.0244
@<TRIPOS>BOND
     1    29    30    1
     2    30    19    1
     3    19    20   ar
     4    20    21   ar
     5    21    22   ar
     6    22    23   ar
     7    23    24   ar
     8    24    25   ar
     9    25    26   ar
    10    26     1    1
    11     1     2    2
    12     1     3   am
    13     3     4    1
    14     4     5    1
    15     5     6    1
    16     6     7    1
    17     7     8    1
    18     6     9    1
    19     9    10    1
    20    10    11   ar
    21    11    12   ar
    22    12    31    1
    23    31    32    1
    24    31    33    1
    25    31    34    1
    26    12    13   ar
    27    13    14   ar
    28    14    15    1
    29    15    16    2
    30    15    17   am
    31    26    27   ar
    32    27    28   ar
    33    28    19   ar
    34    28    23   ar
    35     8     3    1
    36    14    10   ar
    37    17     6    1
    38    17    18    1
@<TRIPOS>MOLECULE
*****
 34 38 0 0 0
SMALL
GASTEIGER

@<TRIPOS>ATOM
      1 C         -20.7622   -7.7441   -8.3398 C.2     1  UNL1        0.2490
      2 O         -20.8326   -6.4848   -8.3665 O.2     1  UNL1       -0.2699
      3 N         -21.6577   -8.5176   -9.1605 N.am    1  UNL1       -0.2760
      4 C         -21.1535   -9.6074  -10.0022 C.3     1  UNL1        0.0954
      5 C         -21.3338   -9.2505  -11.4853 C.3     1  UNL1        0.0399
      6 C         -22.7718   -8.7708  -11.8372 C.3     1  UNL1        0.0645
      7 C         -23.2008   -7.6503  -10.8498 C.3     1  UNL1        0.0399
      8 C         -23.0333   -8.0687   -9.3856 C.3     1  UNL1        0.0954
      9 C         -23.7950   -9.9642  -11.7697 C.3     1  UNL1        0.0477
     10 C         -23.6551  -10.8574  -12.9640 C.ar    1  UNL1        0.0220
     11 C         -24.0775  -12.1488  -13.1771 C.ar    1  UNL1        0.0923
     12 N         -23.8779  -12.4405  -14.4873 N.ar    1  UNL1       -0.2534
     13 N         -23.3845  -11.3744  -15.1120 N.ar    1  UNL1       -0.1651
     14 C         -23.2498  -10.4122  -14.1835 C.ar    1  UNL1        0.1515
     15 C         -22.8109   -9.0390  -14.3709 C.2     1  UNL1        0.2650
     16 O         -22.5264   -8.5913  -15.5130 O.2     1  UNL1       -0.2684
     17 N         -22.7359   -8.2003  -13.2069 N.am    1  UNL1       -0.3023
     18 H         -22.4680   -7.1989  -13.3434 H       1  UNL1        0.1497
     19 C         -17.1197  -11.0358   -7.5956 C.ar    1  UNL1        0.2248
     20 N         -16.2213  -11.6128   -6.7483 N.ar    1  UNL1       -0.2101
     21 C         -16.1221  -11.2518   -5.4426 C.ar    1  UNL1        0.1021
     22 C         -16.9545  -10.2606   -4.9234 C.ar    1  UNL1        0.0209
     23 C         -17.8917   -9.6420   -5.7601 C.ar    1  UNL1        0.0060
     24 C         -18.7430   -8.6459   -5.2635 C.ar    1  UNL1        0.0003
     25 C         -19.6741   -8.0323   -6.1044 C.ar    1  UNL1        0.0045
     26 C         -19.7658   -8.3980   -7.4578 C.ar    1  UNL1        0.0537
     27 C         -18.9231   -9.4080   -7.9546 C.ar    1  UNL1        0.0092
     28 C         -17.9809  -10.0299   -7.1169 C.ar    1  UNL1        0.0534
     29 C         -17.5520  -12.7574   -9.3267 C.3     1  UNL1        0.2542
     30 O         -17.1841  -11.4404   -8.9347 O.3     1  UNL1       -0.4561
     31 C         -24.2274  -13.7104  -15.1548 C.3     1  UNL1        0.0867
     32 C         -25.5293  -14.2723  -14.5509 C.3     1  UNL1        0.0244
     33 C         -23.1045  -14.7524  -14.9610 C.3     1  UNL1        0.0244
     34 C         -24.4195  -13.4584  -16.6613 C.3     1  UNL1        0.0244
@<TRIPOS>BOND
     1    29    30    1
     2    30    19    1
     3    19    20   ar
     4    20    21   ar
     5    21    22   ar
     6    22    23   ar
     7    23    24   ar
     8    24    25   ar
     9    25    26   ar
    10    26     1    1
    11     1     2    2
    12     1     3   am
    13     3     4    1
    14     4     5    1
    15     5     6    1
    16     6     7    1
    17     7     8    1
    18     6     9    1
    19     9    10    1
    20    10    11   ar
    21    11    12   ar
    22    12    31    1
    23    31    32    1
    24    31    33    1
    25    31    34    1
    26    12    13   ar
    27    13    14   ar
    28    14    15    1
    29    15    16    2
    30    15    17   am
    31    26    27   ar
    32    27    28   ar
    33    28    19   ar
    34    28    23   ar
    35     8     3    1
    36    14    10   ar
    37    17     6    1
    38    17    18    1
@<TRIPOS>MOLECULE
*****
 34 38 0 0 0
SMALL
GASTEIGER

@<TRIPOS>ATOM
      1 C         -26.3888   -5.2421  -13.2527 C.2     1  UNL1        0.2490
      2 O         -26.7375   -4.8421  -12.1082 O.2     1  UNL1       -0.2699
      3 N         -25.3861   -6.2697  -13.3649 N.am    1  UNL1       -0.2760
      4 C         -25.5960   -7.4330  -14.2327 C.3     1  UNL1        0.0954
      5 C         -25.7075   -8.7076  -13.3827 C.3     1  UNL1        0.0399
      6 C         -24.5538   -8.8676  -12.3507 C.3     1  UNL1        0.0645
      7 C         -24.4084   -7.5573  -11.5281 C.3     1  UNL1        0.0399
      8 C         -24.2668   -6.3212  -12.4219 C.3     1  UNL1        0.0954
      9 C         -23.1958   -9.1999  -13.0725 C.3     1  UNL1        0.0477
     10 C         -23.1671  -10.6264  -13.5287 C.ar    1  UNL1        0.0220
     11 C         -22.3719  -11.2597  -14.4550 C.ar    1  UNL1        0.0923
     12 N         -22.6087  -12.5928  -14.3637 N.ar    1  UNL1       -0.2534
     13 N         -23.4896  -12.8246  -13.3939 N.ar    1  UNL1       -0.1651
     14 C         -23.8280  -11.6269  -12.8869 C.ar    1  UNL1        0.1515
     15 C         -24.7097  -11.3430  -11.7665 C.2     1  UNL1        0.2650
     16 O         -25.2495  -12.2690  -11.1055 O.2     1  UNL1       -0.2684
     17 N         -24.9256   -9.9649  -11.4229 N.am    1  UNL1       -0.3023
     18 H         -25.5197   -9.7573  -10.5880 H       1  UNL1        0.1497
     19 C         -30.3917   -4.1221  -15.9691 C.ar    1  UNL1        0.2248
     20 N         -30.9220   -3.5591  -17.0915 N.ar    1  UNL1       -0.2101
     21 C         -30.1487   -2.9757  -18.0437 C.ar    1  UNL1        0.1021
     22 C         -28.7626   -2.9367  -17.8952 C.ar    1  UNL1        0.0209
     23 C         -28.1769   -3.5037  -16.7565 C.ar    1  UNL1        0.0060
     24 C         -26.7864   -3.4818  -16.5839 C.ar    1  UNL1        0.0003
     25 C         -26.2096   -4.0479  -15.4449 C.ar    1  UNL1        0.0045
     26 C         -27.0124   -4.6389  -14.4549 C.ar    1  UNL1        0.0537
     27 C         -28.4067   -4.6756  -14.6333 C.ar    1  UNL1        0.0092
     28 C         -28.9971   -4.1063  -15.7750 C.ar    1  UNL1        0.0534
     29 C         -32.3498   -4.0395  -14.4505 C.3     1  UNL1        0.2542
     30 O         -31.2297   -4.7110  -15.0141 O.3     1  UNL1       -0.4561
     31 C         -21.9392  -13.6472  -15.1515 C.3     1  UNL1        0.0867
     32 C         -21.7886  -13.1849  -16.6140 C.3     1  UNL1        0.0244
     33 C         -22.7678  -14.9500  -15.1294 C.3     1  UNL1        0.0244
     34 C         -20.5506  -13.9289  -14.5495 C.3     1  UNL1        0.0244
@<TRIPOS>BOND
     1    29    30    1
     2    30    19    1
     3    19    20   ar
     4    20    21   ar
     5    21    22   ar
     6    22    23   ar
     7    23    24   ar
     8    24    25   ar
     9    25    26   ar
    10    26     1    1
    11     1     2    2
    12     1     3   am
    13     3     4    1
    14     4     5    1
    15     5     6    1
    16     6     7    1
    17     7     8    1
    18     6     9    1
    19     9    10    1
    20    10    11   ar
    21    11    12   ar
    22    12    31    1
    23    31    32    1
    24    31    33    1
    25    31    34    1
    26    12    13   ar
    27    13    14   ar
    28    14    15    1
    29    15    16    2
    30    15    17   am
    31    26    27   ar
    32    27    28   ar
    33    28    19   ar
    34    28    23   ar
    35     8     3    1
    36    14    10   ar
    37    17     6    1
    38    17    18    1
@<TRIPOS>MOLECULE
*****
 34 38 0 0 0
SMALL
GASTEIGER

@<TRIPOS>ATOM
      1 C         -22.8243   -9.7907  -14.2578 C.2     1  UNL1        0.2490
      2 O         -23.7770   -9.0671  -14.6583 O.2     1  UNL1       -0.2699
      3 N         -21.9996   -9.3316  -13.1702 N.am    1  UNL1       -0.2760
      4 C         -21.6892  -10.2117  -12.0391 C.3     1  UNL1        0.0954
      5 C         -22.3423   -9.6697  -10.7588 C.3     1  UNL1        0.0399
      6 C         -22.0535   -8.1616  -10.5060 C.3     1  UNL1        0.0645
      7 C         -22.3820   -7.3486  -11.7887 C.3     1  UNL1        0.0399
      8 C         -21.6800   -7.9094  -13.0296 C.3     1  UNL1        0.0954
      9 C         -20.5498   -7.9373  -10.1005 C.3     1  UNL1        0.0477
     10 C         -20.3087   -8.3599   -8.6839 C.ar    1  UNL1        0.0220
     11 C         -19.1416   -8.6534   -8.0179 C.ar    1  UNL1        0.0923
     12 N         -19.4386   -8.7945   -6.7013 N.ar    1  UNL1       -0.2534
     13 N         -20.7348   -8.5642   -6.5088 N.ar    1  UNL1       -0.1651
     14 C         -21.2624   -8.2997   -7.7162 C.ar    1  UNL1        0.1515
     15 C         -22.6296   -7.9223   -8.0353 C.2     1  UNL1        0.2650
     16 O         -23.4954   -7.7700   -7.1338 O.2     1  UNL1       -0.2684
     17 N         -22.9537   -7.7048   -9.4178 N.am    1  UNL1       -0.3023
     18 H         -23.9225   -7.3858   -9.6477 H       1  UNL1        0.1497
     19 C         -23.8214  -14.6150  -14.8814 C.ar    1  UNL1        0.2248
     20 N         -23.5515  -15.7916  -15.5142 N.ar    1  UNL1       -0.2101
     21 C         -22.5792  -15.9008  -16.4565 C.ar    1  UNL1        0.1021
     22 C         -21.8151  -14.7885  -16.8085 C.ar    1  UNL1        0.0209
     23 C         -22.0600  -13.5601  -16.1823 C.ar    1  UNL1        0.0060
     24 C         -21.3046  -12.4274  -16.5143 C.ar    1  UNL1        0.0003
     25 C         -21.5556  -11.2053  -15.8866 C.ar    1  UNL1        0.0045
     26 C         -22.5707  -11.0917  -14.9220 C.ar    1  UNL1        0.0537
     27 C         -23.3197  -12.2304  -14.5763 C.ar    1  UNL1        0.0092
     28 C         -23.0764  -13.4644  -15.2041 C.ar    1  UNL1        0.0534
     29 C         -26.0854  -13.9149  -14.1523 C.3     1  UNL1        0.2542
     30 O         -24.8350  -14.5509  -13.9172 O.3     1  UNL1       -0.4561
     31 C         -18.4722   -9.0758   -5.6209 C.3     1  UNL1        0.0867
     32 C         -19.2285   -9.3360   -4.3036 C.3     1  UNL1        0.0244
     33 C         -17.5233   -7.8751   -5.4154 C.3     1  UNL1        0.0244
     34 C         -17.6366  -10.3138   -5.9941 C.3     1  UNL1        0.0244
@<TRIPOS>BOND
     1    29    30    1
     2    30    19    1
     3    19    20   ar
     4    20    21   ar
     5    21    22   ar
     6    22    23   ar
     7    23    24   ar
     8    24    25   ar
     9    25    26   ar
    10    26     1    1
    11     1     2    2
    12     1     3   am
    13     3     4    1
    14     4     5    1
    15     5     6    1
    16     6     7    1
    17     7     8    1
    18     6     9    1
    19     9    10    1
    20    10    11   ar
    21    11    12   ar
    22    12    31    1
    23    31    32    1
    24    31    33    1
    25    31    34    1
    26    12    13   ar
    27    13    14   ar
    28    14    15    1
    29    15    16    2
    30    15    17   am
    31    26    27   ar
    32    27    28   ar
    33    28    19   ar
    34    28    23   ar
    35     8     3    1
    36    14    10   ar
    37    17     6    1
    38    17    18    1
@<TRIPOS>MOLECULE
*****
 34 38 0 0 0
SMALL
GASTEIGER

@<TRIPOS>ATOM
      1 C         -22.8690   -9.1562  -15.0591 C.2     1  UNL1        0.2490
      2 O         -23.3389   -8.1628  -15.6786 O.2     1  UNL1       -0.2699
      3 N         -21.9317   -8.9397  -13.9875 N.am    1  UNL1       -0.2760
      4 C         -22.1022   -9.6079  -12.6934 C.3     1  UNL1        0.0954
      5 C         -22.4109   -8.5697  -11.6042 C.3     1  UNL1        0.0399
      6 C         -21.4177   -7.3717  -11.5901 C.3     1  UNL1        0.0645
      7 C         -21.2951   -6.7830  -13.0229 C.3     1  UNL1        0.0399
      8 C         -20.9534   -7.8526  -14.0650 C.3     1  UNL1        0.0954
      9 C         -20.0013   -7.8216  -11.0734 C.3     1  UNL1        0.0477
     10 C         -20.0082   -8.0082   -9.5871 C.ar    1  UNL1        0.0220
     11 C         -19.1414   -8.6841   -8.7604 C.ar    1  UNL1        0.0923
     12 N         -19.4772   -8.3922   -7.4784 N.ar    1  UNL1       -0.2534
     13 N         -20.4926   -7.5325   -7.4674 N.ar    1  UNL1       -0.1651
     14 C         -20.8140   -7.2999   -8.7514 C.ar    1  UNL1        0.1515
     15 C         -21.8156   -6.3853   -9.2746 C.2     1  UNL1        0.2650
     16 O         -22.4993   -5.6542   -8.5105 O.2     1  UNL1       -0.2684
     17 N         -21.9822   -6.3265  -10.7003 N.am    1  UNL1       -0.3023
     18 H         -22.6665   -5.6352  -11.0836 H       1  UNL1        0.1497
     19 C         -25.1577  -13.4525  -14.0786 C.ar    1  UNL1        0.2248
     20 N         -25.5159  -14.7042  -14.4820 N.ar    1  UNL1       -0.2101
     21 C         -25.1781  -15.1963  -15.7022 C.ar    1  UNL1        0.1021
     22 C         -24.4400  -14.4176  -16.5931 C.ar    1  UNL1        0.0209
     23 C         -24.0516  -13.1255  -16.2181 C.ar    1  UNL1        0.0060
     24 C         -23.3062  -12.3231  -17.0923 C.ar    1  UNL1        0.0003
     25 C         -22.9237  -11.0348  -16.7119 C.ar    1  UNL1        0.0045
     26 C         -23.2857  -10.5230  -15.4546 C.ar    1  UNL1        0.0537
     27 C         -24.0205  -11.3319  -14.5698 C.ar    1  UNL1        0.0092
     28 C         -24.4124  -12.6291  -14.9443 C.ar    1  UNL1        0.0534
     29 C         -26.1390  -13.8209  -11.8317 C.3     1  UNL1        0.2542
     30 O         -25.5303  -12.9881  -12.8111 O.3     1  UNL1       -0.4561
     31 C         -18.7814   -8.8762   -6.2692 C.3     1  UNL1        0.0867
     32 C         -17.7698   -7.8153   -5.7935 C.3     1  UNL1        0.0244
     33 C         -18.0187  -10.1848   -6.5692 C.3     1  UNL1        0.0244
     34 C         -19.8145   -9.1441   -5.1596 C.3     1  UNL1        0.0244
@<TRIPOS>BOND
     1    29    30    1
     2    30    19    1
     3    19    20   ar
     4    20    21   ar
     5    21    22   ar
     6    22    23   ar
     7    23    24   ar
     8    24    25   ar
     9    25    26   ar
    10    26     1    1
    11     1     2    2
    12     1     3   am
    13     3     4    1
    14     4     5    1
    15     5     6    1
    16     6     7    1
    17     7     8    1
    18     6     9    1
    19     9    10    1
    20    10    11   ar
    21    11    12   ar
    22    12    31    1
    23    31    32    1
    24    31    33    1
    25    31    34    1
    26    12    13   ar
    27    13    14   ar
    28    14    15    1
    29    15    16    2
    30    15    17   am
    31    26    27   ar
    32    27    28   ar
    33    28    19   ar
    34    28    23   ar
    35     8     3    1
    36    14    10   ar
    37    17     6    1
    38    17    18    1
@<TRIPOS>MOLECULE
*****
 34 38 0 0 0
SMALL
GASTEIGER

@<TRIPOS>ATOM
      1 C         -26.8349   -5.2592  -13.1512 C.2     1  UNL1        0.2490
      2 O         -27.0395   -4.8042  -11.9925 O.2     1  UNL1       -0.2699
      3 N         -25.7935   -6.2332  -13.3521 N.am    1  UNL1       -0.2760
      4 C         -26.0497   -7.4619  -14.1105 C.3     1  UNL1        0.0954
      5 C         -25.9520   -8.6812  -13.1814 C.3     1  UNL1        0.0399
      6 C         -24.6526   -8.7060  -12.3254 C.3     1  UNL1        0.0645
      7 C         -24.4764   -7.3376  -11.6106 C.3     1  UNL1        0.0399
      8 C         -24.5481   -6.1578  -12.5852 C.3     1  UNL1        0.0954
      9 C         -23.3948   -9.0078  -13.2212 C.3     1  UNL1        0.0477
     10 C         -23.3384  -10.4576  -13.5936 C.ar    1  UNL1        0.0220
     11 C         -22.6459  -11.1051  -14.5900 C.ar    1  UNL1        0.0923
     12 N         -22.7783  -12.4404  -14.3879 N.ar    1  UNL1       -0.2534
     13 N         -23.4917  -12.6567  -13.2859 N.ar    1  UNL1       -0.1651
     14 C         -23.8314  -11.4491  -12.8039 C.ar    1  UNL1        0.1515
     15 C         -24.5579  -11.1417  -11.5828 C.2     1  UNL1        0.2650
     16 O         -24.9335  -12.0508  -10.7966 O.2     1  UNL1       -0.2684
     17 N         -24.8124   -9.7583  -11.2909 N.am    1  UNL1       -0.3023
     18 H         -25.2913   -9.5296  -10.3901 H       1  UNL1        0.1497
     19 C         -27.3004   -3.6954  -17.8411 C.ar    1  UNL1        0.2248
     20 N         -28.1008   -3.2483  -18.8497 N.ar    1  UNL1       -0.2101
     21 C         -29.4399   -3.0834  -18.6926 C.ar    1  UNL1        0.1021
     22 C         -30.0439   -3.3729  -17.4694 C.ar    1  UNL1        0.0209
     23 C         -29.2577   -3.8349  -16.4067 C.ar    1  UNL1        0.0060
     24 C         -29.8382   -4.1297  -15.1658 C.ar    1  UNL1        0.0003
     25 C         -29.0478   -4.5916  -14.1110 C.ar    1  UNL1        0.0045
     26 C         -27.6651   -4.7741  -14.2797 C.ar    1  UNL1        0.0537
     27 C         -27.0780   -4.4644  -15.5193 C.ar    1  UNL1        0.0092
     28 C         -27.8653   -4.0013  -16.5880 C.ar    1  UNL1        0.0534
     29 C         -25.3591   -5.0215  -18.6284 C.3     1  UNL1        0.2542
     30 O         -25.9246   -3.8510  -18.0509 O.3     1  UNL1       -0.4561
     31 C         -22.1620  -13.5052  -15.2045 C.3     1  UNL1        0.0867
     32 C         -22.0160  -13.0226  -16.6609 C.3     1  UNL1        0.0244
     33 C         -23.0396  -14.7755  -15.1920 C.3     1  UNL1        0.0244
     34 C         -20.7761  -13.8506  -14.6298 C.3     1  UNL1        0.0244
@<TRIPOS>BOND
     1    29    30    1
     2    30    19    1
     3    19    20   ar
     4    20    21   ar
     5    21    22   ar
     6    22    23   ar
     7    23    24   ar
     8    24    25   ar
     9    25    26   ar
    10    26     1    1
    11     1     2    2
    12     1     3   am
    13     3     4    1
    14     4     5    1
    15     5     6    1
    16     6     7    1
    17     7     8    1
    18     6     9    1
    19     9    10    1
    20    10    11   ar
    21    11    12   ar
    22    12    31    1
    23    31    32    1
    24    31    33    1
    25    31    34    1
    26    12    13   ar
    27    13    14   ar
    28    14    15    1
    29    15    16    2
    30    15    17   am
    31    26    27   ar
    32    27    28   ar
    33    28    19   ar
    34    28    23   ar
    35     8     3    1
    36    14    10   ar
    37    17     6    1
    38    17    18    1
@<TRIPOS>MOLECULE
*****
 34 38 0 0 0
SMALL
GASTEIGER

@<TRIPOS>ATOM
      1 C         -27.6910   -5.1707  -14.5315 C.2     1  UNL1        0.2490
      2 O         -28.8872   -5.3014  -14.1527 O.2     1  UNL1       -0.2699
      3 N         -26.6238   -5.4765  -13.6142 N.am    1  UNL1       -0.2760
      4 C         -25.5021   -6.3279  -14.0231 C.3     1  UNL1        0.0954
      5 C         -25.5269   -7.6436  -13.2307 C.3     1  UNL1        0.0399
      6 C         -25.6601   -7.4394  -11.6937 C.3     1  UNL1        0.0645
      7 C         -26.8531   -6.4887  -11.3984 C.3     1  UNL1        0.0399
      8 C         -26.7631   -5.1785  -12.1871 C.3     1  UNL1        0.0954
      9 C         -24.3364   -6.8408  -11.0893 C.3     1  UNL1        0.0477
     10 C         -23.2699   -7.8883  -10.9940 C.ar    1  UNL1        0.0220
     11 C         -21.9068   -7.7751  -10.8501 C.ar    1  UNL1        0.0923
     12 N         -21.4088   -9.0163  -10.6198 N.ar    1  UNL1       -0.2534
     13 N         -22.4057   -9.8963  -10.5751 N.ar    1  UNL1       -0.1651
     14 C         -23.5373   -9.2080  -10.8028 C.ar    1  UNL1        0.1515
     15 C         -24.9049   -9.7010  -10.7949 C.2     1  UNL1        0.2650
     16 O         -25.1676  -10.9022  -10.5230 O.2     1  UNL1       -0.2684
     17 N         -25.9520   -8.7613  -11.0853 N.am    1  UNL1       -0.3023
     18 H         -26.9399   -9.0998  -11.0328 H       1  UNL1        0.1497
     19 C         -28.8044   -2.3462  -18.4609 C.ar    1  UNL1        0.2248
     20 N         -28.5130   -1.9423  -19.7297 N.ar    1  UNL1       -0.2101
     21 C         -27.4505   -2.4322  -20.4197 C.ar    1  UNL1        0.1021
     22 C         -26.6122   -3.3817  -19.8361 C.ar    1  UNL1        0.0209
     23 C         -26.8759   -3.8239  -18.5338 C.ar    1  UNL1        0.0060
     24 C         -26.0520   -4.7800  -17.9249 C.ar    1  UNL1        0.0003
     25 C         -26.3204   -5.2151  -16.6252 C.ar    1  UNL1        0.0045
     26 C         -27.4121   -4.6971  -15.9085 C.ar    1  UNL1        0.0537
     27 C         -28.2491   -3.7490  -16.5231 C.ar    1  UNL1        0.0092
     28 C         -27.9859   -3.3028  -17.8299 C.ar    1  UNL1        0.0534
     29 C         -31.1928   -2.4267  -17.8003 C.3     1  UNL1        0.2542
     30 O         -29.9103   -1.8114  -17.7886 O.3     1  UNL1       -0.4561
     31 C         -19.9918   -9.3481  -10.3696 C.3     1  UNL1        0.0867
     32 C         -19.7480  -10.8400  -10.6695 C.3     1  UNL1        0.0244
     33 C         -19.6226   -9.0751   -8.8954 C.3     1  UNL1        0.0244
     34 C         -19.0979   -8.4826  -11.2763 C.3     1  UNL1        0.0244
@<TRIPOS>BOND
     1    29    30    1
     2    30    19    1
     3    19    20   ar
     4    20    21   ar
     5    21    22   ar
     6    22    23   ar
     7    23    24   ar
     8    24    25   ar
     9    25    26   ar
    10    26     1    1
    11     1     2    2
    12     1     3   am
    13     3     4    1
    14     4     5    1
    15     5     6    1
    16     6     7    1
    17     7     8    1
    18     6     9    1
    19     9    10    1
    20    10    11   ar
    21    11    12   ar
    22    12    31    1
    23    31    32    1
    24    31    33    1
    25    31    34    1
    26    12    13   ar
    27    13    14   ar
    28    14    15    1
    29    15    16    2
    30    15    17   am
    31    26    27   ar
    32    27    28   ar
    33    28    19   ar
    34    28    23   ar
    35     8     3    1
    36    14    10   ar
    37    17     6    1
    38    17    18    1
