@<TRIPOS>MOLECULE
*****
 47 52 0 0 0
SMALL
GASTEIGER

@<TRIPOS>ATOM
      1 C          60.5037   87.7333    8.9346 C.ar    1  UNL1        0.0525
      2 C          59.7713   86.6089    8.5156 C.ar    1  UNL1        0.0384
      3 C          60.0544   85.3433    9.0492 C.ar    1  UNL1        0.1319
      4 N          61.0660   85.2106    9.9473 N.ar    1  UNL1       -0.2279
      5 C          61.7992   86.2702   10.3723 C.ar    1  UNL1        0.1150
      6 C          61.5372   87.5605    9.8857 C.ar    1  UNL1        0.0729
      7 N          59.3250   84.1774    8.6235 N.pl3   1  UNL1       -0.2932
      8 C          59.9522   83.1412    7.7914 C.3     1  UNL1        0.0923
      9 C          59.7161   81.7437    8.3896 C.3     1  UNL1        0.0252
     10 C          58.3668   81.6170    9.1469 C.3     1  UNL1        0.0472
     11 C          57.3484   82.6691    8.6655 C.3     1  UNL1        0.0252
     12 C          57.8891   84.0837    8.9254 C.3     1  UNL1        0.0923
     13 C          57.7984   80.1906    9.0157 C.3     1  UNL1        0.2054
     14 O          57.6100   79.5879   10.2975 O.3     1  UNL1       -0.4755
     15 C          58.3438   79.8854   11.4580 C.ar    1  UNL1        0.1388
     16 C          58.4284   78.9038   12.4502 C.ar    1  UNL1        0.0369
     17 C          59.1447   79.1421   13.6238 C.ar    1  UNL1        0.0033
     18 C          59.7834   80.3679   13.8211 C.ar    1  UNL1        0.0066
     19 C          59.7096   81.3740   12.8417 C.ar    1  UNL1        0.0785
     20 C          58.9961   81.1194   11.6549 C.ar    1  UNL1        0.0433
     21 C          60.3880   82.6795   13.0332 C.2     1  UNL1        0.3381
     22 O          61.2127   82.8236   13.9747 O.2     1  UNL1       -0.2451
     23 O          60.1516   83.7614   12.1858 O.3     1  UNL1       -0.4771
     24 H          59.5838   83.6871   11.3518 H       1  UNL1        0.2954
     25 N          62.3835   88.6564   10.2760 N.am    1  UNL1       -0.2766
     26 C          62.2207   89.3643   11.5139 C.2     1  UNL1        0.2839
     27 O          61.1142   89.3299   12.1166 O.2     1  UNL1       -0.2665
     28 H          63.1102   88.9907    9.6059 H       1  UNL1        0.1553
     29 C          63.3032   90.1972   12.0663 C.ar    1  UNL1        0.1946
     30 O          63.6932   91.3221   11.4928 O.2     1  UNL1       -0.4492
     31 C          64.6703   91.8219   12.2092 C.ar    1  UNL1        0.1452
     32 C          65.3831   92.9913   11.9683 C.ar    1  UNL1        0.0375
     33 C          66.4024   93.3407   12.8715 C.ar    1  UNL1        0.0031
     34 C          66.6922   92.5210   13.9960 C.ar    1  UNL1        0.0002
     35 C          65.9407   91.3397   14.2052 C.ar    1  UNL1        0.0028
     36 C          64.9375   91.0245   13.2885 C.ar    1  UNL1        0.0337
     37 C          64.0511   89.9680   13.2281 C.ar    1  UNL1        0.0202
     38 C          63.9278   88.8443   14.2124 C.3     1  UNL1        0.0345
     39 C          67.7717   92.8995   14.9430 C.ar    1  UNL1        0.0000
     40 C          68.5098   91.9098   15.6197 C.ar    1  UNL1        0.0000
     41 C          69.5248   92.2691   16.5117 C.ar    1  UNL1        0.0000
     42 C          69.8150   93.6163   16.7378 C.ar    1  UNL1        0.0000
     43 C          69.0902   94.6076   16.0726 C.ar    1  UNL1        0.0000
     44 C          68.0734   94.2542   15.1802 C.ar    1  UNL1        0.0000
     45 C          59.4748   89.2341    7.0748 C.3     1  UNL1        0.0773
     46 C          60.1481   89.0747    8.4038 C.2     1  UNL1        0.1748
     47 O          60.3542   90.1030    9.1032 O.2     1  UNL1       -0.2913
@<TRIPOS>BOND
     1    45    46    1
     2    46    47    2
     3    46     1    1
     4     1     2   ar
     5     2     3   ar
     6     3     7    1
     7     7     8    1
     8     8     9    1
     9     9    10    1
    10    10    13    1
    11    13    14    1
    12    14    15    1
    13    15    16   ar
    14    16    17   ar
    15    17    18   ar
    16    18    19   ar
    17    19    21    1
    18    21    22    2
    19    21    23    1
    20    19    20   ar
    21    10    11    1
    22    11    12    1
    23     3     4   ar
    24     4     5   ar
    25     5     6   ar
    26     6    25    1
    27    25    26   am
    28    26    27    2
    29    26    29    1
    30    29    30   ar
    31    30    31   ar
    32    31    32   ar
    33    32    33   ar
    34    33    34   ar
    35    34    39    1
    36    39    40   ar
    37    40    41   ar
    38    41    42   ar
    39    42    43   ar
    40    43    44   ar
    41    34    35   ar
    42    35    36   ar
    43    36    37   ar
    44    37    38    1
    45     6     1   ar
    46    37    29   ar
    47    12     7    1
    48    36    31   ar
    49    20    15   ar
    50    44    39   ar
    51    23    24    1
    52    25    28    1
@<TRIPOS>MOLECULE
*****
 47 52 0 0 0
SMALL
GASTEIGER

@<TRIPOS>ATOM
      1 C          60.8304   87.9635    9.6523 C.ar    1  UNL1        0.0525
      2 C          60.8113   87.7416   11.0404 C.ar    1  UNL1        0.0384
      3 C          60.7351   88.8251   11.9274 C.ar    1  UNL1        0.1319
      4 N          60.7158   90.0907   11.4322 N.ar    1  UNL1       -0.2279
      5 C          60.7384   90.3462   10.0998 C.ar    1  UNL1        0.1150
      6 C          60.7895   89.2940    9.1721 C.ar    1  UNL1        0.0729
      7 N          60.7279   88.6196   13.3523 N.pl3   1  UNL1       -0.2932
      8 C          59.6249   87.9152   14.0205 C.3     1  UNL1        0.0923
      9 C          60.1636   86.8142   14.9500 C.3     1  UNL1        0.0252
     10 C          61.5437   87.1550   15.5742 C.3     1  UNL1        0.0472
     11 C          61.7919   88.6761   15.5991 C.3     1  UNL1        0.0252
     12 C          61.7853   89.2347   14.1679 C.3     1  UNL1        0.0923
     13 C          61.6708   86.5466   16.9843 C.3     1  UNL1        0.2054
     14 O          62.6502   85.5066   17.0137 O.3     1  UNL1       -0.4755
     15 C          63.2773   84.9405   15.8913 C.ar    1  UNL1        0.1388
     16 C          64.4788   85.5078   15.4553 C.ar    1  UNL1        0.0369
     17 C          65.1474   84.9870   14.3468 C.ar    1  UNL1        0.0033
     18 C          64.6204   83.8930   13.6577 C.ar    1  UNL1        0.0066
     19 C          63.4111   83.3071   14.0718 C.ar    1  UNL1        0.0785
     20 C          62.7507   83.8308   15.1996 C.ar    1  UNL1        0.0433
     21 C          62.8411   82.1402   13.3544 C.2     1  UNL1        0.3381
     22 O          63.4930   81.0637   13.2940 O.2     1  UNL1       -0.2451
     23 O          61.5854   82.1912   12.7503 O.3     1  UNL1       -0.4771
     24 H          60.9652   82.9846   12.8471 H       1  UNL1        0.2954
     25 N          60.9065   89.5849    7.7681 N.am    1  UNL1       -0.2766
     26 C          59.8244   90.1163    6.9894 C.2     1  UNL1        0.2839
     27 O          58.6365   89.9788    7.3882 O.2     1  UNL1       -0.2665
     28 H          61.7972   89.3452    7.2800 H       1  UNL1        0.1553
     29 C          60.0646   90.7619    5.6870 C.ar    1  UNL1        0.1946
     30 O          61.2746   90.8823    5.1696 O.2     1  UNL1       -0.4492
     31 C          61.1616   91.5026    4.0207 C.ar    1  UNL1        0.1452
     32 C          62.1825   91.8476    3.1417 C.ar    1  UNL1        0.0375
     33 C          61.8342   92.5191    1.9566 C.ar    1  UNL1        0.0031
     34 C          60.4783   92.8338    1.6689 C.ar    1  UNL1        0.0002
     35 C          59.4696   92.4624    2.5901 C.ar    1  UNL1        0.0028
     36 C          59.8521   91.7977    3.7554 C.ar    1  UNL1        0.0337
     37 C          59.1151   91.3123    4.8169 C.ar    1  UNL1        0.0202
     38 C          57.6250   91.3631    4.9708 C.3     1  UNL1        0.0345
     39 C          60.1221   93.5441    0.4144 C.ar    1  UNL1        0.0000
     40 C          61.1121   93.8588   -0.5359 C.ar    1  UNL1        0.0000
     41 C          60.7740   94.5288   -1.7157 C.ar    1  UNL1        0.0000
     42 C          59.4476   94.8908   -1.9609 C.ar    1  UNL1        0.0000
     43 C          58.4562   94.5841   -1.0263 C.ar    1  UNL1        0.0000
     44 C          58.7887   93.9152    0.1557 C.ar    1  UNL1        0.0000
     45 C          61.8283   85.6801    8.9039 C.3     1  UNL1        0.0773
     46 C          60.8492   86.8005    8.7278 C.2     1  UNL1        0.1748
     47 O          59.9887   86.7116    7.8109 O.2     1  UNL1       -0.2913
@<TRIPOS>BOND
     1    45    46    1
     2    46    47    2
     3    46     1    1
     4     1     2   ar
     5     2     3   ar
     6     3     7    1
     7     7     8    1
     8     8     9    1
     9     9    10    1
    10    10    13    1
    11    13    14    1
    12    14    15    1
    13    15    16   ar
    14    16    17   ar
    15    17    18   ar
    16    18    19   ar
    17    19    21    1
    18    21    22    2
    19    21    23    1
    20    19    20   ar
    21    10    11    1
    22    11    12    1
    23     3     4   ar
    24     4     5   ar
    25     5     6   ar
    26     6    25    1
    27    25    26   am
    28    26    27    2
    29    26    29    1
    30    29    30   ar
    31    30    31   ar
    32    31    32   ar
    33    32    33   ar
    34    33    34   ar
    35    34    39    1
    36    39    40   ar
    37    40    41   ar
    38    41    42   ar
    39    42    43   ar
    40    43    44   ar
    41    34    35   ar
    42    35    36   ar
    43    36    37   ar
    44    37    38    1
    45     6     1   ar
    46    37    29   ar
    47    12     7    1
    48    36    31   ar
    49    20    15   ar
    50    44    39   ar
    51    23    24    1
    52    25    28    1
