@<TRIPOS>MOLECULE
*****
 47 52 0 0 0
SMALL
GASTEIGER

@<TRIPOS>ATOM
      1 C          59.4583   89.8910    5.6750 C.ar    1  UNL1        0.0702
      2 C          60.6438   90.0184    4.9410 C.ar    1  UNL1        0.0191
      3 C          60.6362   90.6493    3.6962 C.ar    1  UNL1        0.0356
      4 C          59.4278   91.1333    3.1738 C.ar    1  UNL1        0.1318
      5 N          58.2833   90.9872    3.8976 N.ar    1  UNL1       -0.2279
      6 C          58.2673   90.3809    5.1142 C.ar    1  UNL1        0.1149
      7 N          59.3890   91.8004    1.8987 N.pl3   1  UNL1       -0.2932
      8 C          59.6407   93.2455    1.8297 C.3     1  UNL1        0.0923
      9 C          60.3922   93.5934    0.5400 C.3     1  UNL1        0.0252
     10 C          59.6701   93.0130   -0.6917 C.3     1  UNL1        0.0472
     11 C          59.4972   91.4905   -0.5382 C.3     1  UNL1        0.0252
     12 C          58.7335   91.1641    0.7473 C.3     1  UNL1        0.0923
     13 C          60.3926   93.3974   -1.9992 C.3     1  UNL1        0.2054
     14 O          61.7326   93.8429   -1.7671 O.3     1  UNL1       -0.4755
     15 C          62.7340   93.1619   -1.0538 C.ar    1  UNL1        0.1388
     16 C          63.4865   92.2055   -1.7433 C.ar    1  UNL1        0.0369
     17 C          64.4940   91.4911   -1.0943 C.ar    1  UNL1        0.0033
     18 C          64.7649   91.7288    0.2540 C.ar    1  UNL1        0.0066
     19 C          64.0297   92.6894    0.9691 C.ar    1  UNL1        0.0785
     20 C          63.0017   93.3915    0.3119 C.ar    1  UNL1        0.0433
     21 C          64.3303   92.9353    2.4001 C.2     1  UNL1        0.3381
     22 O          65.1389   93.8464    2.7215 O.2     1  UNL1       -0.2451
     23 O          63.7251   92.1937    3.4143 O.3     1  UNL1       -0.4771
     24 H          62.9879   91.5245    3.2336 H       1  UNL1        0.2954
     25 C          59.9372   87.8716    7.1376 C.2     1  UNL1        0.2839
     26 O          60.1126   87.1138    6.1457 O.2     1  UNL1       -0.2665
     27 N          59.4774   89.2193    6.9463 N.am    1  UNL1       -0.2766
     28 H          59.0535   89.7134    7.7641 H       1  UNL1        0.1553
     29 C          62.0228   89.0012    9.2920 C.3     1  UNL1        0.0345
     30 C          61.0720   87.8524    9.4471 C.ar    1  UNL1        0.0202
     31 C          60.1643   87.3628    8.5033 C.ar    1  UNL1        0.1946
     32 O          59.4979   86.3403    9.0070 O.2     1  UNL1       -0.4495
     33 C          59.9248   86.1372   10.2309 C.ar    1  UNL1        0.1411
     34 C          59.4933   85.1580   11.1321 C.ar    1  UNL1        0.0120
     35 C          60.1083   85.1375   12.4060 C.ar    1  UNL1       -0.0013
     36 C          61.1176   86.0747   12.7507 C.ar    1  UNL1       -0.0001
     37 C          61.5184   87.0441   11.8040 C.ar    1  UNL1        0.0028
     38 C          60.8998   87.0439   10.5547 C.ar    1  UNL1        0.0334
     39 C          61.7470   86.0374   14.0950 C.ar    1  UNL1       -0.0000
     40 C          60.9681   85.7991   15.2435 C.ar    1  UNL1       -0.0000
     41 C          61.5634   85.7649   16.5082 C.ar    1  UNL1       -0.0000
     42 C          62.9390   85.9664   16.6411 C.ar    1  UNL1        0.0000
     43 C          63.7225   86.2028   15.5095 C.ar    1  UNL1       -0.0000
     44 C          63.1325   86.2389   14.2423 C.ar    1  UNL1       -0.0000
     45 C          58.4165   84.1613   10.7494 C.3     1  UNL1        0.0253
     46 C          57.8902   83.4186   11.9829 C.3     1  UNL1        0.0048
     47 C          58.9288   83.1786    9.6904 C.3     1  UNL1        0.0048
@<TRIPOS>BOND
     1    29    30    1
     2    30    31   ar
     3    31    25    1
     4    25    26    2
     5    25    27   am
     6    27     1    1
     7     1     2   ar
     8     2     3   ar
     9     3     4   ar
    10     4     7    1
    11     7     8    1
    12     8     9    1
    13     9    10    1
    14    10    13    1
    15    13    14    1
    16    14    15    1
    17    15    16   ar
    18    16    17   ar
    19    17    18   ar
    20    18    19   ar
    21    19    21    1
    22    21    22    2
    23    21    23    1
    24    19    20   ar
    25    10    11    1
    26    11    12    1
    27     4     5   ar
    28     5     6   ar
    29    31    32   ar
    30    32    33   ar
    31    33    34   ar
    32    34    45    1
    33    45    46    1
    34    45    47    1
    35    34    35   ar
    36    35    36   ar
    37    36    39    1
    38    39    40   ar
    39    40    41   ar
    40    41    42   ar
    41    42    43   ar
    42    43    44   ar
    43    36    37   ar
    44    37    38   ar
    45    38    30   ar
    46     6     1   ar
    47    38    33   ar
    48    12     7    1
    49    44    39   ar
    50    20    15   ar
    51    27    28    1
    52    23    24    1
@<TRIPOS>MOLECULE
*****
 47 52 0 0 0
SMALL
GASTEIGER

@<TRIPOS>ATOM
      1 C          59.9863   89.4684    5.9632 C.ar    1  UNL1        0.0702
      2 C          61.0390   89.5835    5.0472 C.ar    1  UNL1        0.0191
      3 C          60.8709   90.3147    3.8705 C.ar    1  UNL1        0.0356
      4 C          59.6317   90.9135    3.5997 C.ar    1  UNL1        0.1318
      5 N          58.6163   90.7782    4.4973 N.ar    1  UNL1       -0.2279
      6 C          58.7584   90.0751    5.6521 C.ar    1  UNL1        0.1149
      7 N          59.4306   91.6852    2.4012 N.pl3   1  UNL1       -0.2932
      8 C          59.9056   93.0736    2.3458 C.3     1  UNL1        0.0923
      9 C          60.4057   93.4088    0.9363 C.3     1  UNL1        0.0252
     10 C          59.3432   93.0562   -0.1231 C.3     1  UNL1        0.0472
     11 C          58.9490   91.5721   -0.0075 C.3     1  UNL1        0.0252
     12 C          58.4400   91.2603    1.4018 C.3     1  UNL1        0.0923
     13 C          59.8177   93.4333   -1.5415 C.3     1  UNL1        0.2054
     14 O          61.1897   93.8393   -1.5640 O.3     1  UNL1       -0.4755
     15 C          62.3013   93.0699   -1.1795 C.ar    1  UNL1        0.1388
     16 C          62.6650   91.9981   -2.0015 C.ar    1  UNL1        0.0369
     17 C          63.7564   91.1920   -1.6766 C.ar    1  UNL1        0.0033
     18 C          64.5019   91.4517   -0.5257 C.ar    1  UNL1        0.0066
     19 C          64.1636   92.5266    0.3140 C.ar    1  UNL1        0.0785
     20 C          63.0489   93.3227   -0.0105 C.ar    1  UNL1        0.0433
     21 C          64.9663   92.7943    1.5315 C.2     1  UNL1        0.3381
     22 O          64.5048   93.5445    2.4323 O.2     1  UNL1       -0.2451
     23 O          66.2230   92.2204    1.7220 O.3     1  UNL1       -0.4771
     24 H          66.6052   91.5257    1.0933 H       1  UNL1        0.2954
     25 C          59.4904   87.4546    7.4279 C.2     1  UNL1        0.2839
     26 O          58.5009   87.1082    6.7282 O.2     1  UNL1       -0.2665
     27 N          60.1672   88.6937    7.1610 N.am    1  UNL1       -0.2766
     28 H          60.7633   89.0995    7.9177 H       1  UNL1        0.1553
     29 C          61.7712   85.2050    7.3636 C.3     1  UNL1        0.0345
     30 C          60.9265   85.6250    8.5289 C.ar    1  UNL1        0.0202
     31 C          59.9317   86.6070    8.5515 C.ar    1  UNL1        0.1946
     32 O          59.4098   86.6920    9.7613 O.2     1  UNL1       -0.4495
     33 C          60.0125   85.8154   10.5291 C.ar    1  UNL1        0.1411
     34 C          59.7759   85.5654   11.8851 C.ar    1  UNL1        0.0120
     35 C          60.5598   84.5628   12.5028 C.ar    1  UNL1       -0.0013
     36 C          61.5451   83.8461   11.7738 C.ar    1  UNL1       -0.0001
     37 C          61.7452   84.1364   10.4053 C.ar    1  UNL1        0.0028
     38 C          60.9598   85.1268    9.8176 C.ar    1  UNL1        0.0334
     39 C          62.3594   82.8004   12.4432 C.ar    1  UNL1       -0.0000
     40 C          61.7397   81.6980   13.0621 C.ar    1  UNL1       -0.0000
     41 C          62.5089   80.7149   13.6920 C.ar    1  UNL1       -0.0000
     42 C          63.9015   80.8195   13.7107 C.ar    1  UNL1        0.0000
     43 C          64.5281   81.9078   13.0995 C.ar    1  UNL1       -0.0000
     44 C          63.7638   82.8944   12.4689 C.ar    1  UNL1       -0.0000
     45 C          58.7181   86.3363   12.6506 C.3     1  UNL1        0.0253
     46 C          59.2239   86.7305   14.0431 C.3     1  UNL1        0.0048
     47 C          57.4141   85.5359   12.7432 C.3     1  UNL1        0.0048
@<TRIPOS>BOND
     1    29    30    1
     2    30    31   ar
     3    31    25    1
     4    25    26    2
     5    25    27   am
     6    27     1    1
     7     1     2   ar
     8     2     3   ar
     9     3     4   ar
    10     4     7    1
    11     7     8    1
    12     8     9    1
    13     9    10    1
    14    10    13    1
    15    13    14    1
    16    14    15    1
    17    15    16   ar
    18    16    17   ar
    19    17    18   ar
    20    18    19   ar
    21    19    21    1
    22    21    22    2
    23    21    23    1
    24    19    20   ar
    25    10    11    1
    26    11    12    1
    27     4     5   ar
    28     5     6   ar
    29    31    32   ar
    30    32    33   ar
    31    33    34   ar
    32    34    45    1
    33    45    46    1
    34    45    47    1
    35    34    35   ar
    36    35    36   ar
    37    36    39    1
    38    39    40   ar
    39    40    41   ar
    40    41    42   ar
    41    42    43   ar
    42    43    44   ar
    43    36    37   ar
    44    37    38   ar
    45    38    30   ar
    46     6     1   ar
    47    38    33   ar
    48    12     7    1
    49    44    39   ar
    50    20    15   ar
    51    27    28    1
    52    23    24    1
