@<TRIPOS>MOLECULE
*****
 51 56 0 0 0
SMALL
GASTEIGER

@<TRIPOS>ATOM
      1 O         -29.8378   51.9837  -12.2260 O.2     1  UNL1       -0.2701
      2 C         -28.9906   51.0628  -12.3879 C.2     1  UNL1        0.2483
      3 N         -29.3690   49.8588  -13.0730 N.am    1  UNL1       -0.2945
      4 H         -28.6167   49.2382  -13.4493 H       1  UNL1        0.1501
      5 C         -27.6075   51.2550  -11.8966 C.ar    1  UNL1        0.0808
      6 C         -27.3615   51.2931  -10.5137 C.ar    1  UNL1        0.0080
      7 C         -26.0647   51.4766  -10.0273 C.ar    1  UNL1        0.0148
      8 C         -24.9865   51.6181  -10.9147 C.ar    1  UNL1        0.0502
      9 C         -25.2261   51.5610  -12.2955 C.ar    1  UNL1        0.0443
     10 C         -26.5225   51.3777  -12.7867 C.ar    1  UNL1        0.1457
     11 F         -26.7013   51.2684  -14.1271 F       1  UNL1       -0.2040
     12 N         -23.6466   51.8038  -10.4206 N.pl3   1  UNL1       -0.3040
     13 C         -23.3823   51.8584   -8.9785 C.3     1  UNL1        0.1123
     14 C         -22.0687   51.1424   -8.6525 C.3     1  UNL1        0.1136
     15 N         -21.0066   51.5679   -9.5756 N.pl3   1  UNL1       -0.2897
     16 C         -21.2869   51.5203  -11.0165 C.3     1  UNL1        0.1136
     17 C         -22.5863   52.2610  -11.3250 C.3     1  UNL1        0.1123
     18 C         -19.6505   51.7502   -9.1204 C.ar    1  UNL1        0.1348
     19 C         -18.5587   51.5248   -9.9715 C.ar    1  UNL1        0.0708
     20 C         -17.2551   51.7122   -9.5036 C.ar    1  UNL1        0.1418
     21 O         -16.2020   51.4761  -10.3907 O.3     1  UNL1       -0.5054
     22 C         -17.0416   52.1318   -8.1693 C.ar    1  UNL1        0.1242
     23 C         -18.1685   52.3549   -7.3570 C.ar    1  UNL1        0.1072
     24 N         -19.4208   52.1629   -7.8454 N.ar    1  UNL1       -0.2290
     25 H         -15.2282   51.5886  -10.1433 H       1  UNL1        0.2922
     26 C         -15.6468   52.3448   -7.6216 C.3     1  UNL1        0.4228
     27 F         -15.3032   51.3718   -6.6984 F       1  UNL1       -0.1657
     28 F         -14.7291   52.3004   -8.6555 F       1  UNL1       -0.1657
     29 F         -15.5758   53.5766   -6.9966 F       1  UNL1       -0.1657
     30 C         -30.7605   49.5809  -13.4431 C.3     1  UNL1        0.1535
     31 C         -30.8145   48.9888  -14.8244 C.2     1  UNL1        0.2443
     32 O         -31.5839   49.4923  -15.6883 O.2     1  UNL1       -0.2730
     33 N         -29.9279   47.9155  -15.1771 N.am    1  UNL1       -0.2825
     34 H         -29.0956   47.7509  -14.5662 H       1  UNL1        0.1549
     35 C         -30.0593   47.1217  -16.3686 C.ar    1  UNL1        0.0535
     36 C         -29.6303   47.6450  -17.5960 C.ar    1  UNL1        0.0353
     37 C         -29.7343   46.8691  -18.7530 C.ar    1  UNL1        0.1002
     38 N         -30.2339   45.6069  -18.6851 N.ar    1  UNL1       -0.2422
     39 C         -30.6398   45.0648  -17.5066 C.ar    1  UNL1        0.1002
     40 C         -30.5541   45.8069  -16.3260 C.ar    1  UNL1        0.0353
     41 C         -31.4131   48.6214  -12.4343 C.3     1  UNL1        0.0569
     42 C         -30.4554   47.5454  -12.0119 C.ar    1  UNL1       -0.0017
     43 C         -30.1444   46.3872  -12.7179 C.ar    1  UNL1        0.0681
     44 N         -29.1816   45.6872  -12.0757 N.ar    1  UNL1       -0.3523
     45 C         -28.8762   46.3980  -10.9761 C.ar    1  UNL1        0.0563
     46 C         -27.9220   46.0889  -10.0078 C.ar    1  UNL1        0.0170
     47 C         -27.7513   46.9909   -8.9415 C.ar    1  UNL1        0.0015
     48 C         -28.5271   48.1694   -8.8695 C.ar    1  UNL1        0.0001
     49 C         -29.4814   48.4566   -9.8625 C.ar    1  UNL1        0.0012
     50 C         -29.6305   47.5410  -10.9045 C.ar    1  UNL1        0.0131
     51 H         -28.7538   44.7857  -12.3835 H       1  UNL1        0.1660
@<TRIPOS>BOND
     1     1     2    2
     2     2     3   am
     3     3    30    1
     4    30    41    1
     5    41    42    1
     6    42    43   ar
     7    43    44   ar
     8    44    45   ar
     9    45    46   ar
    10    46    47   ar
    11    47    48   ar
    12    48    49   ar
    13    49    50   ar
    14    30    31    1
    15    31    32    2
    16    31    33   am
    17    33    35    1
    18    35    36   ar
    19    36    37   ar
    20    37    38   ar
    21    38    39   ar
    22    39    40   ar
    23     2     5    1
    24     5     6   ar
    25     6     7   ar
    26     7     8   ar
    27     8    12    1
    28    12    13    1
    29    13    14    1
    30    14    15    1
    31    15    18    1
    32    18    19   ar
    33    19    20   ar
    34    20    21    1
    35    20    22   ar
    36    22    26    1
    37    26    27    1
    38    26    28    1
    39    26    29    1
    40    22    23   ar
    41    23    24   ar
    42    15    16    1
    43    16    17    1
    44     8     9   ar
    45     9    10   ar
    46    10    11    1
    47    50    42   ar
    48    40    35   ar
    49    10     5   ar
    50    50    45   ar
    51    17    12    1
    52    24    18   ar
    53     3     4    1
    54    44    51    1
    55    33    34    1
    56    21    25    1
