@<TRIPOS>MOLECULE
*****
 37 41 0 0 0
SMALL
GASTEIGER

@<TRIPOS>ATOM
      1 C         -23.2501   -8.8592  -14.1803 C.2     1  UNL1        0.2496
      2 O         -22.4276   -8.0986  -14.7601 O.2     1  UNL1       -0.2699
      3 N         -24.1733   -8.3161  -13.2095 N.am    1  UNL1       -0.2613
      4 C         -24.3644   -9.0673  -11.9575 C.3     1  UNL1        0.1419
      5 C         -25.6055   -8.6470  -11.1793 C.3     1  UNL1        0.2268
      6 O         -26.7554   -8.6737  -12.0083 O.3     1  UNL1       -0.4739
      7 C         -27.0921   -7.6823  -12.9370 C.ar    1  UNL1        0.1369
      8 C         -28.4469   -7.5711  -13.2672 C.ar    1  UNL1        0.0367
      9 C         -28.8938   -6.5890  -14.1480 C.ar    1  UNL1        0.0031
     10 C         -27.9884   -5.6880  -14.7218 C.ar    1  UNL1        0.0000
     11 C         -26.6239   -5.8058  -14.4135 C.ar    1  UNL1        0.0011
     12 C         -26.1481   -6.8148  -13.5507 C.ar    1  UNL1        0.0396
     13 C         -24.6427   -6.9250  -13.3738 C.3     1  UNL1        0.1539
     14 I         -23.8783   -5.5945  -11.8681 I       1  UNL1       -0.0478
     15 C         -28.4607   -4.6411  -15.6617 C.ar    1  UNL1        0.0015
     16 C         -27.5552   -4.0327  -16.5753 C.ar    1  UNL1        0.0016
     17 C         -27.9944   -3.0428  -17.4743 C.ar    1  UNL1        0.0206
     18 C         -29.3376   -2.6840  -17.4375 C.ar    1  UNL1        0.0985
     19 N         -29.9682   -1.7731  -18.2004 N.ar    1  UNL1       -0.2241
     20 C         -31.2484   -1.8345  -17.7476 C.ar    1  UNL1        0.1750
     21 N         -31.4268   -2.7344  -16.7508 N.ar    1  UNL1       -0.3349
     22 C         -30.2103   -3.2604  -16.5675 C.ar    1  UNL1        0.0757
     23 C         -29.8194   -4.2422  -15.6613 C.ar    1  UNL1        0.0185
     24 H         -32.3112   -2.9626  -16.2446 H       1  UNL1        0.1675
     25 C         -22.3197  -11.1943  -13.8005 C.ar    1  UNL1       -0.0165
     26 C         -22.3501  -12.5636  -14.1218 C.ar    1  UNL1        0.0142
     27 C         -23.2235  -13.0529  -15.0996 C.ar    1  UNL1        0.1054
     28 C         -24.0807  -12.1724  -15.7650 C.ar    1  UNL1        0.0185
     29 C         -24.0743  -10.8138  -15.4494 C.ar    1  UNL1        0.0055
     30 C         -23.1962  -10.3074  -14.4785 C.ar    1  UNL1        0.0497
     31 S         -23.2252  -14.7668  -15.5025 S.O2    1  UNL1        0.0104
     32 C         -24.7639  -15.1854  -16.2890 C.3     1  UNL1        0.1816
     33 O         -22.0843  -15.0711  -16.4325 O.2     1  UNL1       -0.1686
     34 O         -23.0609  -15.5871  -14.2537 O.2     1  UNL1       -0.1686
     35 C         -21.4108  -10.7362  -12.6813 C.3     1  UNL1        0.0265
     36 C         -19.9660  -11.4800  -10.7508 C.3     1  UNL1        0.0004
     37 C         -20.9969  -11.9121  -11.7895 C.3     1  UNL1        0.0047
@<TRIPOS>BOND
     1    36    37    1
     2    37    35    1
     3    35    25    1
     4    25    26   ar
     5    26    27   ar
     6    27    31    1
     7    31    32    1
     8    31    33    2
     9    31    34    2
    10    27    28   ar
    11    28    29   ar
    12    29    30   ar
    13    30     1    1
    14     1     2    2
    15     1     3   am
    16     3     4    1
    17     4     5    1
    18     5     6    1
    19     6     7    1
    20     7     8   ar
    21     8     9   ar
    22     9    10   ar
    23    10    15    1
    24    15    16   ar
    25    16    17   ar
    26    17    18   ar
    27    18    19   ar
    28    19    20   ar
    29    20    21   ar
    30    21    22   ar
    31    22    23   ar
    32    10    11   ar
    33    11    12   ar
    34    12    13    1
    35    13    14    1
    36    30    25   ar
    37    13     3    1
    38    12     7   ar
    39    23    15   ar
    40    22    18   ar
    41    21    24    1
@<TRIPOS>MOLECULE
*****
 37 41 0 0 0
SMALL
GASTEIGER

@<TRIPOS>ATOM
      1 C         -23.8976   -8.9932  -11.7236 C.2     1  UNL1        0.2496
      2 O         -24.8992   -8.5633  -11.0887 O.2     1  UNL1       -0.2699
      3 N         -22.6354   -8.2939  -11.6378 N.am    1  UNL1       -0.2613
      4 C         -21.8864   -8.0854  -12.8884 C.3     1  UNL1        0.1419
      5 C         -20.4293   -7.6974  -12.6674 C.3     1  UNL1        0.2268
      6 O         -19.7877   -8.6156  -11.7980 O.3     1  UNL1       -0.4739
      7 C         -19.9209   -8.6210  -10.4048 C.ar    1  UNL1        0.1369
      8 C         -18.8693   -9.1916   -9.6799 C.ar    1  UNL1        0.0367
      9 C         -18.8825   -9.2087   -8.2872 C.ar    1  UNL1        0.0031
     10 C         -19.9560   -8.6497   -7.5828 C.ar    1  UNL1        0.0000
     11 C         -21.0262   -8.0947   -8.3021 C.ar    1  UNL1        0.0011
     12 C         -21.0467   -8.0985   -9.7122 C.ar    1  UNL1        0.0396
     13 C         -22.3024   -7.5760  -10.3904 C.3     1  UNL1        0.1539
     14 I         -22.2992   -5.4389  -10.6234 I       1  UNL1       -0.0478
     15 C         -19.9741   -8.6673   -6.0990 C.ar    1  UNL1        0.0015
     16 C         -21.1694   -8.9902   -5.3977 C.ar    1  UNL1        0.0016
     17 C         -21.1957   -9.0148   -3.9907 C.ar    1  UNL1        0.0206
     18 C         -20.0175   -8.7145   -3.3153 C.ar    1  UNL1        0.0985
     19 N         -19.8154   -8.6819   -1.9858 N.ar    1  UNL1       -0.2241
     20 C         -18.5031   -8.3414   -1.8883 C.ar    1  UNL1        0.1750
     21 N         -17.8993   -8.1663   -3.0884 N.ar    1  UNL1       -0.3349
     22 C         -18.8702   -8.4048   -3.9776 C.ar    1  UNL1        0.0757
     23 C         -18.7992   -8.3681   -5.3673 C.ar    1  UNL1        0.0185
     24 H         -16.9052   -7.9053   -3.2733 H       1  UNL1        0.1675
     25 C         -23.2424  -11.3264  -12.4914 C.ar    1  UNL1       -0.0165
     26 C         -23.4934  -12.4264  -13.3318 C.ar    1  UNL1        0.0142
     27 C         -24.5403  -12.3972  -14.2599 C.ar    1  UNL1        0.1054
     28 C         -25.3513  -11.2630  -14.3529 C.ar    1  UNL1        0.0185
     29 C         -25.1261  -10.1687  -13.5179 C.ar    1  UNL1        0.0055
     30 C         -24.0732  -10.1799  -12.5899 C.ar    1  UNL1        0.0497
     31 S         -24.8188  -13.7761  -15.3187 S.O2    1  UNL1        0.0104
     32 C         -23.5339  -14.9794  -15.0690 C.3     1  UNL1        0.1816
     33 O         -26.1542  -14.3926  -15.0092 O.2     1  UNL1       -0.1686
     34 O         -24.8154  -13.3292  -16.7539 O.2     1  UNL1       -0.1686
     35 C         -22.1468  -11.4460  -11.4551 C.3     1  UNL1        0.0265
     36 C         -19.8954  -12.4902  -10.9984 C.3     1  UNL1        0.0004
     37 C         -20.8578  -11.9971  -12.0750 C.3     1  UNL1        0.0047
@<TRIPOS>BOND
     1    36    37    1
     2    37    35    1
     3    35    25    1
     4    25    26   ar
     5    26    27   ar
     6    27    31    1
     7    31    32    1
     8    31    33    2
     9    31    34    2
    10    27    28   ar
    11    28    29   ar
    12    29    30   ar
    13    30     1    1
    14     1     2    2
    15     1     3   am
    16     3     4    1
    17     4     5    1
    18     5     6    1
    19     6     7    1
    20     7     8   ar
    21     8     9   ar
    22     9    10   ar
    23    10    15    1
    24    15    16   ar
    25    16    17   ar
    26    17    18   ar
    27    18    19   ar
    28    19    20   ar
    29    20    21   ar
    30    21    22   ar
    31    22    23   ar
    32    10    11   ar
    33    11    12   ar
    34    12    13    1
    35    13    14    1
    36    30    25   ar
    37    13     3    1
    38    12     7   ar
    39    23    15   ar
    40    22    18   ar
    41    21    24    1
@<TRIPOS>MOLECULE
*****
 37 41 0 0 0
SMALL
GASTEIGER

@<TRIPOS>ATOM
      1 C         -24.0812   -8.5468  -14.0910 C.2     1  UNL1        0.2496
      2 O         -23.1116   -7.9195  -14.5987 O.2     1  UNL1       -0.2699
      3 N         -25.0782   -7.8345  -13.3241 N.am    1  UNL1       -0.2613
      4 C         -25.5236   -8.4400  -12.0578 C.3     1  UNL1        0.1419
      5 C         -26.8175   -7.8415  -11.5193 C.3     1  UNL1        0.2268
      6 O         -27.8308   -7.8519  -12.5110 O.3     1  UNL1       -0.4739
      7 C         -27.9285   -6.9317  -13.5609 C.ar    1  UNL1        0.1369
      8 C         -29.2028   -6.7390  -14.1050 C.ar    1  UNL1        0.0367
      9 C         -29.4170   -5.8140  -15.1240 C.ar    1  UNL1        0.0031
     10 C         -28.3529   -5.0538  -15.6248 C.ar    1  UNL1        0.0000
     11 C         -27.0665   -5.2561  -15.1003 C.ar    1  UNL1        0.0011
     12 C         -26.8240   -6.2120  -14.0923 C.ar    1  UNL1        0.0396
     13 C         -25.3789   -6.4316  -13.6759 C.3     1  UNL1        0.1539
     14 I         -24.7154   -5.0291  -12.1878 I       1  UNL1       -0.0478
     15 C         -28.5770   -4.0683  -16.7115 C.ar    1  UNL1        0.0015
     16 C         -29.6858   -3.1782  -16.6583 C.ar    1  UNL1        0.0016
     17 C         -29.9041   -2.2363  -17.6812 C.ar    1  UNL1        0.0206
     18 C         -29.0013   -2.2074  -18.7388 C.ar    1  UNL1        0.0985
     19 N         -29.0144   -1.3955  -19.8112 N.ar    1  UNL1       -0.2241
     20 C         -27.9168   -1.7955  -20.5060 C.ar    1  UNL1        0.1750
     21 N         -27.2393   -2.8068  -19.9113 N.ar    1  UNL1       -0.3349
     22 C         -27.9385   -3.0545  -18.7977 C.ar    1  UNL1        0.0757
     23 C         -27.6849   -4.0013  -17.8093 C.ar    1  UNL1        0.0185
     24 H         -26.3717   -3.2811  -20.2471 H       1  UNL1        0.1675
     25 C         -23.2012  -10.8846  -13.6190 C.ar    1  UNL1       -0.0165
     26 C         -23.3309  -12.2736  -13.8008 C.ar    1  UNL1        0.0142
     27 C         -24.3511  -12.8013  -14.6003 C.ar    1  UNL1        0.1054
     28 C         -25.2567  -11.9396  -15.2248 C.ar    1  UNL1        0.0185
     29 C         -25.1520  -10.5605  -15.0444 C.ar    1  UNL1        0.0055
     30 C         -24.1275  -10.0167  -14.2540 C.ar    1  UNL1        0.0497
     31 S         -24.4776  -14.5418  -14.8336 S.O2    1  UNL1        0.0104
     32 C         -22.8709  -15.2041  -15.2092 C.3     1  UNL1        0.1816
     33 O         -25.0082  -15.1847  -13.5828 O.2     1  UNL1       -0.1686
     34 O         -25.4202  -14.8401  -15.9659 O.2     1  UNL1       -0.1686
     35 C         -22.1275  -10.3773  -12.6818 C.3     1  UNL1        0.0265
     36 C         -20.4336  -11.0502  -10.9367 C.3     1  UNL1        0.0004
     37 C         -21.3423  -11.5382  -12.0611 C.3     1  UNL1        0.0047
@<TRIPOS>BOND
     1    36    37    1
     2    37    35    1
     3    35    25    1
     4    25    26   ar
     5    26    27   ar
     6    27    31    1
     7    31    32    1
     8    31    33    2
     9    31    34    2
    10    27    28   ar
    11    28    29   ar
    12    29    30   ar
    13    30     1    1
    14     1     2    2
    15     1     3   am
    16     3     4    1
    17     4     5    1
    18     5     6    1
    19     6     7    1
    20     7     8   ar
    21     8     9   ar
    22     9    10   ar
    23    10    15    1
    24    15    16   ar
    25    16    17   ar
    26    17    18   ar
    27    18    19   ar
    28    19    20   ar
    29    20    21   ar
    30    21    22   ar
    31    22    23   ar
    32    10    11   ar
    33    11    12   ar
    34    12    13    1
    35    13    14    1
    36    30    25   ar
    37    13     3    1
    38    12     7   ar
    39    23    15   ar
    40    22    18   ar
    41    21    24    1
@<TRIPOS>MOLECULE
*****
 37 41 0 0 0
SMALL
GASTEIGER

@<TRIPOS>ATOM
      1 C         -22.5423  -12.2224  -17.2703 C.2     1  UNL1        0.2496
      2 O         -21.4583  -12.7605  -17.6261 O.2     1  UNL1       -0.2699
      3 N         -23.2183  -12.6826  -16.0783 N.am    1  UNL1       -0.2613
      4 C         -24.6771  -12.8693  -16.1522 C.3     1  UNL1        0.1419
      5 C         -25.3463  -12.9784  -14.7874 C.3     1  UNL1        0.2268
      6 O         -24.9807  -11.8893  -13.9563 O.3     1  UNL1       -0.4739
      7 C         -23.7656  -11.7828  -13.2700 C.ar    1  UNL1        0.1369
      8 C         -23.7636  -10.9768  -12.1267 C.ar    1  UNL1        0.0367
      9 C         -22.6177  -10.8380  -11.3471 C.ar    1  UNL1        0.0031
     10 C         -21.4390  -11.5090  -11.6958 C.ar    1  UNL1        0.0000
     11 C         -21.4253  -12.3025  -12.8538 C.ar    1  UNL1        0.0011
     12 C         -22.5654  -12.4280  -13.6743 C.ar    1  UNL1        0.0396
     13 C         -22.4104  -13.2180  -14.9634 C.3     1  UNL1        0.1539
     14 I         -22.6606  -15.3345  -14.6821 I       1  UNL1       -0.0478
     15 C         -20.2158  -11.3625  -10.8684 C.ar    1  UNL1        0.0015
     16 C         -19.8771  -10.1020  -10.3016 C.ar    1  UNL1        0.0016
     17 C         -18.7221   -9.9539   -9.5111 C.ar    1  UNL1        0.0206
     18 C         -17.9294  -11.0780   -9.3050 C.ar    1  UNL1        0.0985
     19 N         -16.7946  -11.1657   -8.5882 N.ar    1  UNL1       -0.2241
     20 C         -16.4529  -12.4744   -8.7228 C.ar    1  UNL1        0.1750
     21 N         -17.3207  -13.1843   -9.4832 N.ar    1  UNL1       -0.3349
     22 C         -18.2456  -12.2869   -9.8429 C.ar    1  UNL1        0.0757
     23 C         -19.3771  -12.4785  -10.6309 C.ar    1  UNL1        0.0185
     24 H         -17.2754  -14.1980   -9.7297 H       1  UNL1        0.1675
     25 C         -23.2593   -9.8216  -17.7003 C.ar    1  UNL1       -0.0165
     26 C         -23.7876   -8.8697  -18.5914 C.ar    1  UNL1        0.0142
     27 C         -24.1766   -9.2348  -19.8851 C.ar    1  UNL1        0.1054
     28 C         -24.0362  -10.5614  -20.3014 C.ar    1  UNL1        0.0185
     29 C         -23.5011  -11.5157  -19.4364 C.ar    1  UNL1        0.0055
     30 C         -23.1167  -11.1660  -18.1326 C.ar    1  UNL1        0.0497
     31 S         -24.8591   -8.0310  -20.9735 S.O2    1  UNL1        0.0104
     32 C         -25.2469   -6.5589  -20.0549 C.3     1  UNL1        0.1816
     33 O         -23.8678   -7.7040  -22.0551 O.2     1  UNL1       -0.1686
     34 O         -26.1096   -8.5676  -21.6121 O.2     1  UNL1       -0.1686
     35 C         -22.7842   -9.3528  -16.3428 C.3     1  UNL1        0.0265
     36 C         -20.5190   -8.2435  -16.4210 C.3     1  UNL1        0.0004
     37 C         -22.0286   -8.0235  -16.4506 C.3     1  UNL1        0.0047
@<TRIPOS>BOND
     1    36    37    1
     2    37    35    1
     3    35    25    1
     4    25    26   ar
     5    26    27   ar
     6    27    31    1
     7    31    32    1
     8    31    33    2
     9    31    34    2
    10    27    28   ar
    11    28    29   ar
    12    29    30   ar
    13    30     1    1
    14     1     2    2
    15     1     3   am
    16     3     4    1
    17     4     5    1
    18     5     6    1
    19     6     7    1
    20     7     8   ar
    21     8     9   ar
    22     9    10   ar
    23    10    15    1
    24    15    16   ar
    25    16    17   ar
    26    17    18   ar
    27    18    19   ar
    28    19    20   ar
    29    20    21   ar
    30    21    22   ar
    31    22    23   ar
    32    10    11   ar
    33    11    12   ar
    34    12    13    1
    35    13    14    1
    36    30    25   ar
    37    13     3    1
    38    12     7   ar
    39    23    15   ar
    40    22    18   ar
    41    21    24    1
@<TRIPOS>MOLECULE
*****
 37 41 0 0 0
SMALL
GASTEIGER

@<TRIPOS>ATOM
      1 C         -23.6137   -9.4778  -11.3645 C.2     1  UNL1        0.2496
      2 O         -24.8243   -9.3353  -11.0399 O.2     1  UNL1       -0.2699
      3 N         -23.2740  -10.0085  -12.6655 N.am    1  UNL1       -0.2613
      4 C         -22.2092  -11.0236  -12.7297 C.3     1  UNL1        0.1419
      5 C         -21.6595  -11.2406  -14.1344 C.3     1  UNL1        0.2268
      6 O         -21.2709  -10.0097  -14.7212 O.3     1  UNL1       -0.4739
      7 C         -22.1530   -9.0834  -15.2891 C.ar    1  UNL1        0.1369
      8 C         -21.6202   -8.2287  -16.2600 C.ar    1  UNL1        0.0367
      9 C         -22.4225   -7.2997  -16.9182 C.ar    1  UNL1        0.0031
     10 C         -23.7872   -7.2050  -16.6186 C.ar    1  UNL1        0.0000
     11 C         -24.3262   -8.0434  -15.6300 C.ar    1  UNL1        0.0011
     12 C         -23.5229   -8.9665  -14.9288 C.ar    1  UNL1        0.0396
     13 C         -24.1810   -9.7444  -13.8013 C.3     1  UNL1        0.1539
     14 I         -25.2064  -11.5049  -14.4875 I       1  UNL1       -0.0478
     15 C         -24.6448   -6.2155  -17.3168 C.ar    1  UNL1        0.0015
     16 C         -24.6372   -6.1320  -18.7373 C.ar    1  UNL1        0.0016
     17 C         -25.4509   -5.2006  -19.4092 C.ar    1  UNL1        0.0206
     18 C         -26.2581   -4.3706  -18.6385 C.ar    1  UNL1        0.0985
     19 N         -27.1086   -3.4202  -19.0660 N.ar    1  UNL1       -0.2241
     20 C         -27.6262   -2.9348  -17.9067 C.ar    1  UNL1        0.1750
     21 N         -27.1345   -3.5409  -16.7994 N.ar    1  UNL1       -0.3349
     22 C         -26.2718   -4.4436  -17.2801 C.ar    1  UNL1        0.0757
     23 C         -25.4835   -5.3486  -16.5749 C.ar    1  UNL1        0.0185
     24 H         -27.3754   -3.3462  -15.8022 H       1  UNL1        0.1675
     25 C         -21.5126   -8.2464  -10.6355 C.ar    1  UNL1       -0.0165
     26 C         -20.5822   -7.9607   -9.6197 C.ar    1  UNL1        0.0142
     27 C         -20.6908   -8.5559   -8.3578 C.ar    1  UNL1        0.1054
     28 C         -21.7386   -9.4437   -8.0994 C.ar    1  UNL1        0.0185
     29 C         -22.6784   -9.7277   -9.0900 C.ar    1  UNL1        0.0055
     30 C         -22.5758   -9.1464  -10.3634 C.ar    1  UNL1        0.0497
     31 S         -19.4995   -8.2025   -7.1106 S.O2    1  UNL1        0.0104
     32 C         -18.4083   -9.5943   -6.9271 C.3     1  UNL1        0.1816
     33 O         -18.7052   -6.9864   -7.4969 O.2     1  UNL1       -0.1686
     34 O         -20.1907   -7.9315   -5.8036 O.2     1  UNL1       -0.1686
     35 C         -21.3890   -7.5137  -11.9533 C.3     1  UNL1        0.0265
     36 C         -22.9157   -5.5709  -11.4411 C.3     1  UNL1        0.0004
     37 C         -21.4841   -5.9970  -11.7531 C.3     1  UNL1        0.0047
@<TRIPOS>BOND
     1    36    37    1
     2    37    35    1
     3    35    25    1
     4    25    26   ar
     5    26    27   ar
     6    27    31    1
     7    31    32    1
     8    31    33    2
     9    31    34    2
    10    27    28   ar
    11    28    29   ar
    12    29    30   ar
    13    30     1    1
    14     1     2    2
    15     1     3   am
    16     3     4    1
    17     4     5    1
    18     5     6    1
    19     6     7    1
    20     7     8   ar
    21     8     9   ar
    22     9    10   ar
    23    10    15    1
    24    15    16   ar
    25    16    17   ar
    26    17    18   ar
    27    18    19   ar
    28    19    20   ar
    29    20    21   ar
    30    21    22   ar
    31    22    23   ar
    32    10    11   ar
    33    11    12   ar
    34    12    13    1
    35    13    14    1
    36    30    25   ar
    37    13     3    1
    38    12     7   ar
    39    23    15   ar
    40    22    18   ar
    41    21    24    1
@<TRIPOS>MOLECULE
*****
 37 41 0 0 0
SMALL
GASTEIGER

@<TRIPOS>ATOM
      1 C         -22.7914   -8.4019  -16.4516 C.2     1  UNL1        0.2496
      2 O         -21.6412   -8.2328  -16.9410 O.2     1  UNL1       -0.2699
      3 N         -23.1572   -9.6858  -15.8972 N.am    1  UNL1       -0.2613
      4 C         -24.4873  -10.2193  -16.2356 C.3     1  UNL1        0.1419
      5 C         -24.9352  -11.3580  -15.3272 C.3     1  UNL1        0.2268
      6 O         -24.8312  -10.9871  -13.9625 O.3     1  UNL1       -0.4739
      7 C         -23.6390  -10.9695  -13.2297 C.ar    1  UNL1        0.1369
      8 C         -23.7573  -11.1084  -11.8427 C.ar    1  UNL1        0.0367
      9 C         -22.6300  -11.1475  -11.0255 C.ar    1  UNL1        0.0031
     10 C         -21.3488  -11.0490  -11.5820 C.ar    1  UNL1        0.0000
     11 C         -21.2211  -10.8871  -12.9706 C.ar    1  UNL1        0.0011
     12 C         -22.3514  -10.8113  -13.8105 C.ar    1  UNL1        0.0396
     13 C         -22.1057  -10.5214  -15.2820 C.3     1  UNL1        0.1539
     14 I         -21.6624  -12.2907  -16.4199 I       1  UNL1       -0.0478
     15 C         -20.1456  -11.0888  -10.7143 C.ar    1  UNL1        0.0015
     16 C         -19.7347   -9.9289  -10.0000 C.ar    1  UNL1        0.0016
     17 C         -18.5981   -9.9578   -9.1703 C.ar    1  UNL1        0.0206
     18 C         -17.8961  -11.1547   -9.0746 C.ar    1  UNL1        0.0985
     19 N         -16.7944  -11.4075   -8.3454 N.ar    1  UNL1       -0.2241
     20 C         -16.5444  -12.7151   -8.6199 C.ar    1  UNL1        0.1750
     21 N         -17.4365  -13.2679   -9.4766 N.ar    1  UNL1       -0.3349
     22 C         -18.2817  -12.2685   -9.7539 C.ar    1  UNL1        0.0757
     23 C         -19.3981  -12.2847  -10.5853 C.ar    1  UNL1        0.0185
     24 H         -17.4568  -14.2483   -9.8356 H       1  UNL1        0.1675
     25 C         -24.4744   -6.8233  -15.3847 C.ar    1  UNL1       -0.0165
     26 C         -25.3494   -5.7307  -15.5255 C.ar    1  UNL1        0.0142
     27 C         -25.5192   -5.1011  -16.7638 C.ar    1  UNL1        0.1054
     28 C         -24.8085   -5.5594  -17.8763 C.ar    1  UNL1        0.0185
     29 C         -23.9259   -6.6323  -17.7522 C.ar    1  UNL1        0.0055
     30 C         -23.7538   -7.2800  -16.5190 C.ar    1  UNL1        0.0497
     31 S         -26.6393   -3.7518  -16.9208 S.O2    1  UNL1        0.0104
     32 C         -28.1435   -4.1309  -16.0519 C.3     1  UNL1        0.1816
     33 O         -26.0221   -2.5094  -16.3423 O.2     1  UNL1       -0.1686
     34 O         -26.9464   -3.5068  -18.3717 O.2     1  UNL1       -0.1686
     35 C         -24.2734   -7.4131  -14.0063 C.3     1  UNL1        0.0265
     36 C         -26.4077   -8.1982  -12.9127 C.3     1  UNL1        0.0004
     37 C         -25.4288   -7.0385  -13.0712 C.3     1  UNL1        0.0047
@<TRIPOS>BOND
     1    36    37    1
     2    37    35    1
     3    35    25    1
     4    25    26   ar
     5    26    27   ar
     6    27    31    1
     7    31    32    1
     8    31    33    2
     9    31    34    2
    10    27    28   ar
    11    28    29   ar
    12    29    30   ar
    13    30     1    1
    14     1     2    2
    15     1     3   am
    16     3     4    1
    17     4     5    1
    18     5     6    1
    19     6     7    1
    20     7     8   ar
    21     8     9   ar
    22     9    10   ar
    23    10    15    1
    24    15    16   ar
    25    16    17   ar
    26    17    18   ar
    27    18    19   ar
    28    19    20   ar
    29    20    21   ar
    30    21    22   ar
    31    22    23   ar
    32    10    11   ar
    33    11    12   ar
    34    12    13    1
    35    13    14    1
    36    30    25   ar
    37    13     3    1
    38    12     7   ar
    39    23    15   ar
    40    22    18   ar
    41    21    24    1
@<TRIPOS>MOLECULE
*****
 37 41 0 0 0
SMALL
GASTEIGER

@<TRIPOS>ATOM
      1 C         -22.3397  -11.5068  -12.3100 C.2     1  UNL1        0.2496
      2 O         -23.4350  -11.6531  -11.7016 O.2     1  UNL1       -0.2699
      3 N         -22.3218  -11.4281  -13.7533 N.am    1  UNL1       -0.2613
      4 C         -21.2860  -12.1964  -14.4641 C.3     1  UNL1        0.1419
      5 C         -21.0966  -11.7660  -15.9137 C.3     1  UNL1        0.2268
      6 O         -20.8898  -10.3661  -16.0027 O.3     1  UNL1       -0.4739
      7 C         -21.9032   -9.4038  -15.9265 C.ar    1  UNL1        0.1369
      8 C         -21.6442   -8.1749  -16.5427 C.ar    1  UNL1        0.0367
      9 C         -22.6027   -7.1646  -16.5624 C.ar    1  UNL1        0.0031
     10 C         -23.8524   -7.3629  -15.9626 C.ar    1  UNL1        0.0000
     11 C         -24.1134   -8.5849  -15.3226 C.ar    1  UNL1        0.0011
     12 C         -23.1435   -9.6069  -15.2627 C.ar    1  UNL1        0.0396
     13 C         -23.4867  -10.8438  -14.4491 C.3     1  UNL1        0.1539
     14 I         -24.6147  -12.2932  -15.5665 I       1  UNL1       -0.0478
     15 C         -24.8757   -6.2883  -15.9805 C.ar    1  UNL1        0.0015
     16 C         -25.5441   -5.9110  -14.7823 C.ar    1  UNL1        0.0016
     17 C         -26.5122   -4.8894  -14.7877 C.ar    1  UNL1        0.0206
     18 C         -26.7893   -4.2657  -15.9996 C.ar    1  UNL1        0.0985
     19 N         -27.6660   -3.2727  -16.2336 N.ar    1  UNL1       -0.2241
     20 C         -27.5245   -3.0533  -17.5675 C.ar    1  UNL1        0.1750
     21 N         -26.6082   -3.8606  -18.1541 N.ar    1  UNL1       -0.3349
     22 C         -26.1551   -4.6198  -17.1498 C.ar    1  UNL1        0.0757
     23 C         -25.1921   -5.6242  -17.1906 C.ar    1  UNL1        0.0185
     24 H         -26.3236   -3.8826  -19.1585 H       1  UNL1        0.1675
     25 C         -20.6003  -10.2957  -10.9063 C.ar    1  UNL1       -0.0165
     26 C         -19.4228  -10.3600  -10.1391 C.ar    1  UNL1        0.0142
     27 C         -18.7361  -11.5686   -9.9768 C.ar    1  UNL1        0.1054
     28 C         -19.2264  -12.7295  -10.5808 C.ar    1  UNL1        0.0185
     29 C         -20.4001  -12.6874  -11.3331 C.ar    1  UNL1        0.0055
     30 C         -21.0932  -11.4803  -11.5131 C.ar    1  UNL1        0.0497
     31 S         -17.2505  -11.6189   -9.0333 S.O2    1  UNL1        0.0104
     32 C         -17.5846  -11.0608   -7.3785 C.3     1  UNL1        0.1816
     33 O         -16.7212  -13.0252   -8.9940 O.2     1  UNL1       -0.1686
     34 O         -16.2135  -10.7310   -9.6623 O.2     1  UNL1       -0.1686
     35 C         -21.3408   -8.9787  -10.9816 C.3     1  UNL1        0.0265
     36 C         -21.9018   -7.1188  -12.5921 C.3     1  UNL1        0.0004
     37 C         -20.8471   -8.1341  -12.1616 C.3     1  UNL1        0.0047
@<TRIPOS>BOND
     1    36    37    1
     2    37    35    1
     3    35    25    1
     4    25    26   ar
     5    26    27   ar
     6    27    31    1
     7    31    32    1
     8    31    33    2
     9    31    34    2
    10    27    28   ar
    11    28    29   ar
    12    29    30   ar
    13    30     1    1
    14     1     2    2
    15     1     3   am
    16     3     4    1
    17     4     5    1
    18     5     6    1
    19     6     7    1
    20     7     8   ar
    21     8     9   ar
    22     9    10   ar
    23    10    15    1
    24    15    16   ar
    25    16    17   ar
    26    17    18   ar
    27    18    19   ar
    28    19    20   ar
    29    20    21   ar
    30    21    22   ar
    31    22    23   ar
    32    10    11   ar
    33    11    12   ar
    34    12    13    1
    35    13    14    1
    36    30    25   ar
    37    13     3    1
    38    12     7   ar
    39    23    15   ar
    40    22    18   ar
    41    21    24    1
@<TRIPOS>MOLECULE
*****
 37 41 0 0 0
SMALL
GASTEIGER

@<TRIPOS>ATOM
      1 C         -23.8552   -8.4433  -11.1902 C.2     1  UNL1        0.2496
      2 O         -24.7453   -7.8489  -10.5226 O.2     1  UNL1       -0.2699
      3 N         -22.4973   -7.9478  -11.1826 N.am    1  UNL1       -0.2613
      4 C         -21.7883   -7.8855  -12.4718 C.3     1  UNL1        0.1419
      5 C         -20.2796   -7.7250  -12.3292 C.3     1  UNL1        0.2268
      6 O         -19.7453   -8.7133  -11.4642 O.3     1  UNL1       -0.4739
      7 C         -19.8081   -8.6681  -10.0668 C.ar    1  UNL1        0.1369
      8 C         -18.8227   -9.3802   -9.3748 C.ar    1  UNL1        0.0367
      9 C         -18.7689   -9.3653   -7.9830 C.ar    1  UNL1        0.0031
     10 C         -19.7064   -8.6308   -7.2464 C.ar    1  UNL1        0.0000
     11 C         -20.7123   -7.9310   -7.9315 C.ar    1  UNL1        0.0011
     12 C         -20.8034   -7.9617   -9.3384 C.ar    1  UNL1        0.0396
     13 C         -21.9953   -7.2643   -9.9730 C.3     1  UNL1        0.1539
     14 I         -21.6729   -5.1593  -10.2674 I       1  UNL1       -0.0478
     15 C         -19.6530   -8.6137   -5.7635 C.ar    1  UNL1        0.0015
     16 C         -20.8041   -8.9510   -4.9980 C.ar    1  UNL1        0.0016
     17 C         -20.7623   -8.9430   -3.5912 C.ar    1  UNL1        0.0206
     18 C         -19.5618   -8.5960   -2.9806 C.ar    1  UNL1        0.0985
     19 N         -19.2972   -8.5266   -1.6636 N.ar    1  UNL1       -0.2241
     20 C         -17.9915   -8.1497   -1.6375 C.ar    1  UNL1        0.1750
     21 N         -17.4509   -7.9873   -2.8690 N.ar    1  UNL1       -0.3349
     22 C         -18.4564   -8.2722   -3.7045 C.ar    1  UNL1        0.0757
     23 C         -18.4530   -8.2666   -5.0965 C.ar    1  UNL1        0.0185
     24 H         -16.4743   -7.7050   -3.1077 H       1  UNL1        0.1675
     25 C         -25.1781   -9.5006  -13.0861 C.ar    1  UNL1       -0.0165
     26 C         -25.4841  -10.6485  -13.8396 C.ar    1  UNL1        0.0142
     27 C         -24.8979  -11.8831  -13.5384 C.ar    1  UNL1        0.1054
     28 C         -23.9933  -11.9790  -12.4776 C.ar    1  UNL1        0.0185
     29 C         -23.6671  -10.8485  -11.7288 C.ar    1  UNL1        0.0055
     30 C         -24.2554   -9.6062  -12.0128 C.ar    1  UNL1        0.0497
     31 S         -25.3162  -13.3110  -14.4795 S.O2    1  UNL1        0.0104
     32 C         -24.5860  -13.1858  -16.0958 C.3     1  UNL1        0.1816
     33 O         -24.8031  -14.5431  -13.7883 O.2     1  UNL1       -0.1686
     34 O         -26.8097  -13.4189  -14.6110 O.2     1  UNL1       -0.1686
     35 C         -25.7826   -8.1794  -13.5073 C.3     1  UNL1        0.0265
     36 C         -28.0656   -7.1628  -13.8567 C.3     1  UNL1        0.0004
     37 C         -27.1941   -8.0099  -12.9341 C.3     1  UNL1        0.0047
@<TRIPOS>BOND
     1    36    37    1
     2    37    35    1
     3    35    25    1
     4    25    26   ar
     5    26    27   ar
     6    27    31    1
     7    31    32    1
     8    31    33    2
     9    31    34    2
    10    27    28   ar
    11    28    29   ar
    12    29    30   ar
    13    30     1    1
    14     1     2    2
    15     1     3   am
    16     3     4    1
    17     4     5    1
    18     5     6    1
    19     6     7    1
    20     7     8   ar
    21     8     9   ar
    22     9    10   ar
    23    10    15    1
    24    15    16   ar
    25    16    17   ar
    26    17    18   ar
    27    18    19   ar
    28    19    20   ar
    29    20    21   ar
    30    21    22   ar
    31    22    23   ar
    32    10    11   ar
    33    11    12   ar
    34    12    13    1
    35    13    14    1
    36    30    25   ar
    37    13     3    1
    38    12     7   ar
    39    23    15   ar
    40    22    18   ar
    41    21    24    1
@<TRIPOS>MOLECULE
*****
 37 41 0 0 0
SMALL
GASTEIGER

@<TRIPOS>ATOM
      1 C         -22.6994   -8.4258  -13.7664 C.2     1  UNL1        0.2496
      2 O         -21.9186   -7.5849  -14.2905 O.2     1  UNL1       -0.2699
      3 N         -23.7255   -7.9828  -12.8497 N.am    1  UNL1       -0.2613
      4 C         -23.9197   -8.7637  -11.6164 C.3     1  UNL1        0.1419
      5 C         -25.2388   -8.4703  -10.9120 C.3     1  UNL1        0.2268
      6 O         -26.3298   -8.5939  -11.8092 O.3     1  UNL1       -0.4739
      7 C         -26.7020   -7.6270  -12.7501 C.ar    1  UNL1        0.1369
      8 C         -28.0391   -7.6385  -13.1608 C.ar    1  UNL1        0.0367
      9 C         -28.5228   -6.6917  -14.0607 C.ar    1  UNL1        0.0031
     10 C         -27.6732   -5.7034  -14.5728 C.ar    1  UNL1        0.0000
     11 C         -26.3245   -5.6974  -14.1834 C.ar    1  UNL1        0.0011
     12 C         -25.8085   -6.6681  -13.3000 C.ar    1  UNL1        0.0396
     13 C         -24.3127   -6.6397  -13.0331 C.3     1  UNL1        0.1539
     14 I         -23.7674   -5.2621  -11.4753 I       1  UNL1       -0.0478
     15 C         -28.1847   -4.6939  -15.5328 C.ar    1  UNL1        0.0015
     16 C         -27.3114   -4.1005  -16.4866 C.ar    1  UNL1        0.0016
     17 C         -27.7878   -3.1460  -17.4047 C.ar    1  UNL1        0.0206
     18 C         -29.1354   -2.8069  -17.3462 C.ar    1  UNL1        0.0985
     19 N         -29.7987   -1.9301  -18.1212 N.ar    1  UNL1       -0.2241
     20 C         -31.0664   -1.9968  -17.6355 C.ar    1  UNL1        0.1750
     21 N         -31.2064   -2.8678  -16.6074 N.ar    1  UNL1       -0.3349
     22 C         -29.9775   -3.3691  -16.4377 C.ar    1  UNL1        0.0757
     23 C         -29.5493   -4.3160  -15.5115 C.ar    1  UNL1        0.0185
     24 H         -32.0746   -3.0936  -16.0729 H       1  UNL1        0.1675
     25 C         -22.9976  -10.4705  -15.2472 C.ar    1  UNL1       -0.0165
     26 C         -22.7320  -11.8327  -15.4775 C.ar    1  UNL1        0.0142
     27 C         -21.9875  -12.5844  -14.5615 C.ar    1  UNL1        0.1054
     28 C         -21.4968  -11.9754  -13.4034 C.ar    1  UNL1        0.0185
     29 C         -21.7381  -10.6224  -13.1656 C.ar    1  UNL1        0.0055
     30 C         -22.4923   -9.8590  -14.0702 C.ar    1  UNL1        0.0497
     31 S         -21.6900  -14.2940  -14.8590 S.O2    1  UNL1        0.0104
     32 C         -23.2384  -15.1207  -15.1423 C.3     1  UNL1        0.1816
     33 O         -20.8054  -14.4535  -16.0637 O.2     1  UNL1       -0.1686
     34 O         -21.0031  -14.9089  -13.6718 O.2     1  UNL1       -0.1686
     35 C         -23.7407   -9.6911  -16.3097 C.3     1  UNL1        0.0265
     36 C         -23.3105   -7.4562  -17.3995 C.3     1  UNL1        0.0004
     37 C         -22.7744   -8.8657  -17.1667 C.3     1  UNL1        0.0047
@<TRIPOS>BOND
     1    36    37    1
     2    37    35    1
     3    35    25    1
     4    25    26   ar
     5    26    27   ar
     6    27    31    1
     7    31    32    1
     8    31    33    2
     9    31    34    2
    10    27    28   ar
    11    28    29   ar
    12    29    30   ar
    13    30     1    1
    14     1     2    2
    15     1     3   am
    16     3     4    1
    17     4     5    1
    18     5     6    1
    19     6     7    1
    20     7     8   ar
    21     8     9   ar
    22     9    10   ar
    23    10    15    1
    24    15    16   ar
    25    16    17   ar
    26    17    18   ar
    27    18    19   ar
    28    19    20   ar
    29    20    21   ar
    30    21    22   ar
    31    22    23   ar
    32    10    11   ar
    33    11    12   ar
    34    12    13    1
    35    13    14    1
    36    30    25   ar
    37    13     3    1
    38    12     7   ar
    39    23    15   ar
    40    22    18   ar
    41    21    24    1
