@<TRIPOS>MOLECULE
*****
 40 44 0 0 0
SMALL
GASTEIGER

@<TRIPOS>ATOM
      1 C         -29.9743   49.3448  -11.1947 C.3     1  UNL1        0.0439
      2 C         -29.4121   50.7453  -10.9175 C.3     1  UNL1        0.1375
      3 C         -30.4006   51.8213  -11.3860 C.3     1  UNL1        0.0439
      4 C         -28.0073   50.9361  -11.5812 C.3     1  UNL1        0.0709
      5 C         -27.1358   51.1848  -10.4059 C.ar    1  UNL1        0.0325
      6 C         -27.8646   51.1545   -9.2429 C.ar    1  UNL1        0.1401
      7 C         -27.2657   51.3488   -7.9710 C.ar    1  UNL1        0.0889
      8 C         -25.8594   51.5575   -7.9235 C.ar    1  UNL1        0.0282
      9 C         -25.1489   51.5784   -9.1323 C.ar    1  UNL1        0.0997
     10 N         -23.8285   51.7614   -9.3108 N.ar    1  UNL1       -0.2137
     11 C         -23.6985   51.6761  -10.6639 C.ar    1  UNL1        0.1983
     12 N         -24.8642   51.4588  -11.3211 N.ar    1  UNL1       -0.3255
     13 C         -25.7668   51.3989  -10.3363 C.ar    1  UNL1        0.0755
     14 O         -29.1925   50.8923   -9.5107 O.3     1  UNL1       -0.4824
     15 H         -25.0196   51.3608  -12.3491 H       1  UNL1        0.1686
     16 C         -28.0613   51.3128   -6.7235 C.2     1  UNL1        0.2535
     17 O         -27.9070   52.2232   -5.8640 O.2     1  UNL1       -0.2697
     18 N         -29.0457   50.2886   -6.5092 N.am    1  UNL1       -0.2657
     19 H         -29.5226   49.8825   -7.3454 H       1  UNL1        0.1566
     20 C         -29.5295   49.8967   -5.2152 C.ar    1  UNL1        0.1344
     21 C         -30.7542   50.3657   -4.7138 C.ar    1  UNL1        0.0344
     22 C         -31.1688   49.9785   -3.4385 C.ar    1  UNL1        0.0083
     23 C         -30.3711   49.1213   -2.6655 C.ar    1  UNL1        0.0906
     24 C         -29.1330   48.7137   -3.1863 C.ar    1  UNL1        0.1041
     25 N         -28.7498   49.1044   -4.4306 N.ar    1  UNL1       -0.2291
     26 C         -30.7830   48.7381   -1.2671 C.3     1  UNL1        0.4200
     27 F         -29.6713   48.4648   -0.4890 F       1  UNL1       -0.1658
     28 F         -31.5837   47.6126   -1.3205 F       1  UNL1       -0.1658
     29 F         -31.4892   49.7665   -0.6675 F       1  UNL1       -0.1658
     30 N         -22.4463   51.8257  -11.3427 N.pl3   1  UNL1       -0.2827
     31 H         -22.3852   51.5294  -12.3426 H       1  UNL1        0.1551
     32 C         -21.3519   52.5563  -10.7717 C.ar    1  UNL1        0.0726
     33 C         -21.4883   53.9239  -10.4575 C.ar    1  UNL1        0.0720
     34 CL        -23.0122   54.7724  -10.6905 Cl      1  UNL1       -0.0809
     35 C         -20.4134   54.6226   -9.9001 C.ar    1  UNL1        0.0136
     36 C         -19.2073   53.9706   -9.6427 C.ar    1  UNL1        0.0132
     37 C         -19.0649   52.6106   -9.9320 C.ar    1  UNL1        0.0695
     38 CL        -17.5288   51.8280   -9.5828 Cl      1  UNL1       -0.0813
     39 C         -20.1388   51.8961  -10.4927 C.ar    1  UNL1        0.0824
     40 CL        -19.9591   50.1845  -10.8778 Cl      1  UNL1       -0.0800
@<TRIPOS>BOND
     1     1     2    1
     2     2     3    1
     3     2     4    1
     4     4     5    1
     5     5     6   ar
     6     6     7   ar
     7     7    16    1
     8    16    17    2
     9    16    18   am
    10    18    20    1
    11    20    21   ar
    12    21    22   ar
    13    22    23   ar
    14    23    26    1
    15    26    27    1
    16    26    28    1
    17    26    29    1
    18    23    24   ar
    19    24    25   ar
    20     7     8   ar
    21     8     9   ar
    22     9    10   ar
    23    10    11   ar
    24    11    30    1
    25    30    32    1
    26    32    33   ar
    27    33    34    1
    28    33    35   ar
    29    35    36   ar
    30    36    37   ar
    31    37    38    1
    32    37    39   ar
    33    39    40    1
    34    11    12   ar
    35    12    13   ar
    36     6    14    1
    37    14     2    1
    38    13     5   ar
    39    25    20   ar
    40    13     9   ar
    41    39    32   ar
    42    18    19    1
    43    30    31    1
    44    12    15    1
@<TRIPOS>MOLECULE
*****
 40 44 0 0 0
SMALL
GASTEIGER

@<TRIPOS>ATOM
      1 C         -29.5492   48.5190  -10.6285 C.3     1  UNL1        0.0439
      2 C         -29.1216   49.7923   -9.8869 C.3     1  UNL1        0.1375
      3 C         -30.3377   50.6882   -9.6164 C.3     1  UNL1        0.0439
      4 C         -28.0110   50.5642  -10.6751 C.3     1  UNL1        0.0709
      5 C         -26.8747   50.5409   -9.7205 C.ar    1  UNL1        0.0325
      6 C         -27.2204   49.8827   -8.5664 C.ar    1  UNL1        0.1401
      7 C         -26.3068   49.7069   -7.4947 C.ar    1  UNL1        0.0889
      8 C         -24.9888   50.2180   -7.6542 C.ar    1  UNL1        0.0282
      9 C         -24.6727   50.8811   -8.8487 C.ar    1  UNL1        0.0997
     10 N         -23.4989   51.4364   -9.1989 N.ar    1  UNL1       -0.2137
     11 C         -23.7605   51.9192  -10.4454 C.ar    1  UNL1        0.1983
     12 N         -25.0279   51.6967  -10.8723 N.ar    1  UNL1       -0.3255
     13 C         -25.5864   51.0391   -9.8506 C.ar    1  UNL1        0.0755
     14 O         -28.5213   49.4291   -8.6393 O.3     1  UNL1       -0.4824
     15 H         -25.4630   51.9717  -11.7810 H       1  UNL1        0.1686
     16 C         -26.6902   48.9945   -6.2554 C.2     1  UNL1        0.2535
     17 O         -26.6161   47.7359   -6.2162 O.2     1  UNL1       -0.2697
     18 N         -27.0875   49.7228   -5.0823 N.am    1  UNL1       -0.2657
     19 H         -26.6825   50.6744   -4.9340 H       1  UNL1        0.1566
     20 C         -27.8818   49.1681   -4.0225 C.ar    1  UNL1        0.1344
     21 C         -29.2835   49.2491   -4.0328 C.ar    1  UNL1        0.0344
     22 C         -30.0109   48.7195   -2.9658 C.ar    1  UNL1        0.0083
     23 C         -29.3471   48.1043   -1.8937 C.ar    1  UNL1        0.0906
     24 C         -27.9436   48.0865   -1.9012 C.ar    1  UNL1        0.1041
     25 N         -27.2564   48.6095   -2.9510 N.ar    1  UNL1       -0.2291
     26 C         -30.1183   47.5754   -0.7116 C.3     1  UNL1        0.4200
     27 F         -30.0521   48.4614    0.3498 F       1  UNL1       -0.1658
     28 F         -29.5796   46.3636   -0.3216 F       1  UNL1       -0.1658
     29 F         -31.4504   47.3923   -1.0405 F       1  UNL1       -0.1658
     30 N         -22.7934   52.6229  -11.2331 N.pl3   1  UNL1       -0.2827
     31 H         -23.0437   52.8784  -12.2146 H       1  UNL1        0.1551
     32 C         -21.5968   53.1700  -10.6617 C.ar    1  UNL1        0.0726
     33 C         -20.4355   52.3806  -10.5364 C.ar    1  UNL1        0.0720
     34 CL        -20.3827   50.7240  -11.1275 Cl      1  UNL1       -0.0809
     35 C         -19.2763   52.9279   -9.9789 C.ar    1  UNL1        0.0136
     36 C         -19.2586   54.2567   -9.5543 C.ar    1  UNL1        0.0132
     37 C         -20.3974   55.0556   -9.6901 C.ar    1  UNL1        0.0695
     38 CL        -20.3267   56.7278   -9.1489 Cl      1  UNL1       -0.0813
     39 C         -21.5700   54.5171  -10.2497 C.ar    1  UNL1        0.0824
     40 CL        -23.0160   55.5147  -10.4060 Cl      1  UNL1       -0.0800
@<TRIPOS>BOND
     1     1     2    1
     2     2     3    1
     3     2     4    1
     4     4     5    1
     5     5     6   ar
     6     6     7   ar
     7     7    16    1
     8    16    17    2
     9    16    18   am
    10    18    20    1
    11    20    21   ar
    12    21    22   ar
    13    22    23   ar
    14    23    26    1
    15    26    27    1
    16    26    28    1
    17    26    29    1
    18    23    24   ar
    19    24    25   ar
    20     7     8   ar
    21     8     9   ar
    22     9    10   ar
    23    10    11   ar
    24    11    30    1
    25    30    32    1
    26    32    33   ar
    27    33    34    1
    28    33    35   ar
    29    35    36   ar
    30    36    37   ar
    31    37    38    1
    32    37    39   ar
    33    39    40    1
    34    11    12   ar
    35    12    13   ar
    36     6    14    1
    37    14     2    1
    38    13     5   ar
    39    25    20   ar
    40    13     9   ar
    41    39    32   ar
    42    18    19    1
    43    30    31    1
    44    12    15    1
@<TRIPOS>MOLECULE
*****
 40 44 0 0 0
SMALL
GASTEIGER

@<TRIPOS>ATOM
      1 C         -29.4989   52.9446  -11.7737 C.3     1  UNL1        0.0439
      2 C         -29.0227   51.5538  -11.3341 C.3     1  UNL1        0.1375
      3 C         -29.4083   50.5003  -12.3810 C.3     1  UNL1        0.0439
      4 C         -29.5818   51.1815   -9.9202 C.3     1  UNL1        0.0709
      5 C         -28.3399   51.0215   -9.1234 C.ar    1  UNL1        0.0325
      6 C         -27.2301   51.2499   -9.8986 C.ar    1  UNL1        0.1401
      7 C         -25.9137   51.1753   -9.3735 C.ar    1  UNL1        0.0889
      8 C         -25.7657   50.8748   -7.9909 C.ar    1  UNL1        0.0282
      9 C         -26.9231   50.6513   -7.2313 C.ar    1  UNL1        0.0997
     10 N         -27.0068   50.3539   -5.9224 N.ar    1  UNL1       -0.2137
     11 C         -28.3512   50.2586   -5.7262 C.ar    1  UNL1        0.1983
     12 N         -29.0916   50.4737   -6.8414 N.ar    1  UNL1       -0.3255
     13 C         -28.1713   50.7212   -7.7795 C.ar    1  UNL1        0.0755
     14 O         -27.5988   51.5699  -11.1890 O.3     1  UNL1       -0.4824
     15 H         -30.1308   50.4522   -6.9431 H       1  UNL1        0.1686
     16 C         -24.7244   51.4246  -10.2184 C.2     1  UNL1        0.2535
     17 O         -24.6060   50.8152  -11.3165 O.2     1  UNL1       -0.2697
     18 N         -23.7373   52.3935   -9.8300 N.am    1  UNL1       -0.2657
     19 H         -24.0492   53.2112   -9.2593 H       1  UNL1        0.1566
     20 C         -22.3821   52.3951  -10.3046 C.ar    1  UNL1        0.1344
     21 C         -21.6778   53.5908  -10.5179 C.ar    1  UNL1        0.0344
     22 C         -20.3715   53.5418  -11.0069 C.ar    1  UNL1        0.0083
     23 C         -19.7635   52.3065  -11.2771 C.ar    1  UNL1        0.0906
     24 C         -20.5193   51.1380  -11.0941 C.ar    1  UNL1        0.1041
     25 N         -21.7904   51.2105  -10.6177 N.ar    1  UNL1       -0.2291
     26 C         -18.3726   52.2424  -11.8545 C.3     1  UNL1        0.4200
     27 F         -17.4607   51.8559  -10.8875 F       1  UNL1       -0.1658
     28 F         -18.0203   53.4902  -12.3334 F       1  UNL1       -0.1658
     29 F         -18.3170   51.3283  -12.8924 F       1  UNL1       -0.1658
     30 N         -28.9385   49.9361   -4.4605 N.pl3   1  UNL1       -0.2827
     31 H         -29.3592   50.7088   -3.8972 H       1  UNL1        0.1551
     32 C         -29.1585   48.5809   -4.0451 C.ar    1  UNL1        0.0726
     33 C         -30.3512   47.9106   -4.3857 C.ar    1  UNL1        0.0720
     34 CL        -31.5840   48.6774   -5.3799 Cl      1  UNL1       -0.0809
     35 C         -30.5510   46.5894   -3.9750 C.ar    1  UNL1        0.0136
     36 C         -29.5707   45.9253   -3.2374 C.ar    1  UNL1        0.0132
     37 C         -28.3759   46.5721   -2.9092 C.ar    1  UNL1        0.0695
     38 CL        -27.1646   45.6929   -1.9850 Cl      1  UNL1       -0.0813
     39 C         -28.1623   47.9012   -3.3166 C.ar    1  UNL1        0.0824
     40 CL        -26.6649   48.7290   -2.8890 Cl      1  UNL1       -0.0800
@<TRIPOS>BOND
     1     1     2    1
     2     2     3    1
     3     2     4    1
     4     4     5    1
     5     5     6   ar
     6     6     7   ar
     7     7    16    1
     8    16    17    2
     9    16    18   am
    10    18    20    1
    11    20    21   ar
    12    21    22   ar
    13    22    23   ar
    14    23    26    1
    15    26    27    1
    16    26    28    1
    17    26    29    1
    18    23    24   ar
    19    24    25   ar
    20     7     8   ar
    21     8     9   ar
    22     9    10   ar
    23    10    11   ar
    24    11    30    1
    25    30    32    1
    26    32    33   ar
    27    33    34    1
    28    33    35   ar
    29    35    36   ar
    30    36    37   ar
    31    37    38    1
    32    37    39   ar
    33    39    40    1
    34    11    12   ar
    35    12    13   ar
    36     6    14    1
    37    14     2    1
    38    13     5   ar
    39    25    20   ar
    40    13     9   ar
    41    39    32   ar
    42    18    19    1
    43    30    31    1
    44    12    15    1
@<TRIPOS>MOLECULE
*****
 40 44 0 0 0
SMALL
GASTEIGER

@<TRIPOS>ATOM
      1 C         -30.1881   52.6613  -11.9411 C.3     1  UNL1        0.0439
      2 C         -29.7207   51.2059  -11.8081 C.3     1  UNL1        0.1375
      3 C         -29.9426   50.4500  -13.1249 C.3     1  UNL1        0.0439
      4 C         -30.4316   50.4869  -10.6130 C.3     1  UNL1        0.0709
      5 C         -29.2888   50.1343   -9.7340 C.ar    1  UNL1        0.0325
      6 C         -28.1029   50.5543  -10.2835 C.ar    1  UNL1        0.1401
      7 C         -26.8568   50.3531   -9.6346 C.ar    1  UNL1        0.0889
      8 C         -26.8647   49.7135   -8.3640 C.ar    1  UNL1        0.0282
      9 C         -28.0962   49.3021   -7.8342 C.ar    1  UNL1        0.0997
     10 N         -28.3253   48.6834   -6.6622 N.ar    1  UNL1       -0.2137
     11 C         -29.6795   48.5379   -6.6645 C.ar    1  UNL1        0.1983
     12 N         -30.2884   49.0256   -7.7733 N.ar    1  UNL1       -0.3255
     13 C         -29.2717   49.5046   -8.4979 C.ar    1  UNL1        0.0755
     14 O         -28.3256   51.1889  -11.4881 O.3     1  UNL1       -0.4824
     15 H         -31.3067   49.0276   -8.0052 H       1  UNL1        0.1686
     16 C         -25.5844   50.8112  -10.2360 C.2     1  UNL1        0.2535
     17 O         -25.1212   50.2061  -11.2412 O.2     1  UNL1       -0.2697
     18 N         -24.9052   51.9694   -9.7247 N.am    1  UNL1       -0.2657
     19 H         -25.4810   52.7242   -9.2885 H       1  UNL1        0.1566
     20 C         -23.5055   52.2289   -9.9132 C.ar    1  UNL1        0.1344
     21 C         -23.0008   52.6912  -11.1391 C.ar    1  UNL1        0.0344
     22 C         -21.6285   52.9023  -11.2822 C.ar    1  UNL1        0.0083
     23 C         -20.7601   52.6611  -10.2069 C.ar    1  UNL1        0.0906
     24 C         -21.3009   52.1553   -9.0145 C.ar    1  UNL1        0.1041
     25 N         -22.6407   51.9566   -8.8987 N.ar    1  UNL1       -0.2291
     26 C         -19.2713   52.8353  -10.3651 C.3     1  UNL1        0.4200
     27 F         -18.6558   52.9170   -9.1279 F       1  UNL1       -0.1658
     28 F         -19.0211   53.9974  -11.0706 F       1  UNL1       -0.1658
     29 F         -18.7248   51.7644  -11.0508 F       1  UNL1       -0.1658
     30 N         -30.4023   47.9043   -5.6028 N.pl3   1  UNL1       -0.2827
     31 H         -31.2627   47.3625   -5.8424 H       1  UNL1        0.1551
     32 C         -29.8749   47.8084   -4.2724 C.ar    1  UNL1        0.0726
     33 C         -30.1990   48.7768   -3.3004 C.ar    1  UNL1        0.0720
     34 CL        -31.3049   50.0990   -3.6543 Cl      1  UNL1       -0.0809
     35 C         -29.6786   48.6694   -2.0075 C.ar    1  UNL1        0.0136
     36 C         -28.8470   47.6015   -1.6695 C.ar    1  UNL1        0.0132
     37 C         -28.5330   46.6245   -2.6183 C.ar    1  UNL1        0.0695
     38 CL        -27.4875   45.2913   -2.1452 Cl      1  UNL1       -0.0813
     39 C         -29.0503   46.7207   -3.9226 C.ar    1  UNL1        0.0824
     40 CL        -28.6422   45.5013   -5.1297 Cl      1  UNL1       -0.0800
@<TRIPOS>BOND
     1     1     2    1
     2     2     3    1
     3     2     4    1
     4     4     5    1
     5     5     6   ar
     6     6     7   ar
     7     7    16    1
     8    16    17    2
     9    16    18   am
    10    18    20    1
    11    20    21   ar
    12    21    22   ar
    13    22    23   ar
    14    23    26    1
    15    26    27    1
    16    26    28    1
    17    26    29    1
    18    23    24   ar
    19    24    25   ar
    20     7     8   ar
    21     8     9   ar
    22     9    10   ar
    23    10    11   ar
    24    11    30    1
    25    30    32    1
    26    32    33   ar
    27    33    34    1
    28    33    35   ar
    29    35    36   ar
    30    36    37   ar
    31    37    38    1
    32    37    39   ar
    33    39    40    1
    34    11    12   ar
    35    12    13   ar
    36     6    14    1
    37    14     2    1
    38    13     5   ar
    39    25    20   ar
    40    13     9   ar
    41    39    32   ar
    42    18    19    1
    43    30    31    1
    44    12    15    1
@<TRIPOS>MOLECULE
*****
 40 44 0 0 0
SMALL
GASTEIGER

@<TRIPOS>ATOM
      1 C         -16.1336   51.9412   -9.9275 C.3     1  UNL1        0.0439
      2 C         -17.2794   51.8372   -8.9123 C.3     1  UNL1        0.1375
      3 C         -16.8054   51.1191   -7.6418 C.3     1  UNL1        0.0439
      4 C         -18.5282   51.1272   -9.5343 C.3     1  UNL1        0.0709
      5 C         -19.5655   52.1854   -9.4500 C.ar    1  UNL1        0.0325
      6 C         -19.0537   53.3264   -8.8836 C.ar    1  UNL1        0.1401
      7 C         -19.8370   54.4957   -8.7008 C.ar    1  UNL1        0.0889
      8 C         -21.1872   54.4678   -9.1479 C.ar    1  UNL1        0.0282
      9 C         -21.6726   53.2852   -9.7245 C.ar    1  UNL1        0.0997
     10 N         -22.9056   53.0470  -10.2056 N.ar    1  UNL1       -0.2137
     11 C         -22.8088   51.7608  -10.6432 C.ar    1  UNL1        0.1983
     12 N         -21.5903   51.1989  -10.4502 N.ar    1  UNL1       -0.3255
     13 C         -20.8876   52.1779   -9.8705 C.ar    1  UNL1        0.0755
     14 O         -17.7216   53.1543   -8.5680 O.3     1  UNL1       -0.4824
     15 H         -21.2757   50.2339  -10.6960 H       1  UNL1        0.1686
     16 C         -19.2743   55.7206   -8.0899 C.2     1  UNL1        0.2535
     17 O         -18.5412   55.6226   -7.0680 O.2     1  UNL1       -0.2697
     18 N         -19.5053   57.0094   -8.6814 N.am    1  UNL1       -0.2657
     19 H         -19.6415   57.0580   -9.7161 H       1  UNL1        0.1566
     20 C         -19.4063   58.2511   -7.9671 C.ar    1  UNL1        0.1344
     21 C         -19.5861   58.3170   -6.5762 C.ar    1  UNL1        0.0344
     22 C         -19.5079   59.5519   -5.9303 C.ar    1  UNL1        0.0083
     23 C         -19.2445   60.7183   -6.6642 C.ar    1  UNL1        0.0906
     24 C         -19.1177   60.6138   -8.0582 C.ar    1  UNL1        0.1041
     25 N         -19.1987   59.4003   -8.6655 N.ar    1  UNL1       -0.2291
     26 C         -19.2094   62.0639   -5.9858 C.3     1  UNL1        0.4200
     27 F         -19.1148   61.9154   -4.6129 F       1  UNL1       -0.1658
     28 F         -20.3681   62.7555   -6.2857 F       1  UNL1       -0.1658
     29 F         -18.1197   62.7998   -6.4181 F       1  UNL1       -0.1658
     30 N         -23.9017   51.0491  -11.2350 N.pl3   1  UNL1       -0.2827
     31 H         -23.6952   50.3721  -12.0033 H       1  UNL1        0.1551
     32 C         -25.2209   51.0725  -10.6723 C.ar    1  UNL1        0.0726
     33 C         -25.4125   50.9083   -9.2853 C.ar    1  UNL1        0.0720
     34 CL        -24.0510   50.7323   -8.1844 Cl      1  UNL1       -0.0809
     35 C         -26.7040   50.9348   -8.7511 C.ar    1  UNL1        0.0136
     36 C         -27.8062   51.1337   -9.5828 C.ar    1  UNL1        0.0132
     37 C         -27.6288   51.3166  -10.9571 C.ar    1  UNL1        0.0695
     38 CL        -29.0466   51.5726  -11.9662 Cl      1  UNL1       -0.0813
     39 C         -26.3345   51.2924  -11.5071 C.ar    1  UNL1        0.0824
     40 CL        -26.1057   51.5034  -13.2430 Cl      1  UNL1       -0.0800
@<TRIPOS>BOND
     1     1     2    1
     2     2     3    1
     3     2     4    1
     4     4     5    1
     5     5     6   ar
     6     6     7   ar
     7     7    16    1
     8    16    17    2
     9    16    18   am
    10    18    20    1
    11    20    21   ar
    12    21    22   ar
    13    22    23   ar
    14    23    26    1
    15    26    27    1
    16    26    28    1
    17    26    29    1
    18    23    24   ar
    19    24    25   ar
    20     7     8   ar
    21     8     9   ar
    22     9    10   ar
    23    10    11   ar
    24    11    30    1
    25    30    32    1
    26    32    33   ar
    27    33    34    1
    28    33    35   ar
    29    35    36   ar
    30    36    37   ar
    31    37    38    1
    32    37    39   ar
    33    39    40    1
    34    11    12   ar
    35    12    13   ar
    36     6    14    1
    37    14     2    1
    38    13     5   ar
    39    25    20   ar
    40    13     9   ar
    41    39    32   ar
    42    18    19    1
    43    30    31    1
    44    12    15    1
@<TRIPOS>MOLECULE
*****
 40 44 0 0 0
SMALL
GASTEIGER

@<TRIPOS>ATOM
      1 C         -16.1282   51.9548   -9.9343 C.3     1  UNL1        0.0439
      2 C         -17.2652   51.8532   -8.9090 C.3     1  UNL1        0.1375
      3 C         -16.7796   51.1405   -7.6399 C.3     1  UNL1        0.0439
      4 C         -18.5183   51.1392   -9.5178 C.3     1  UNL1        0.0709
      5 C         -19.5563   52.1963   -9.4288 C.ar    1  UNL1        0.0325
      6 C         -19.0413   53.3401   -8.8710 C.ar    1  UNL1        0.1401
      7 C         -19.8245   54.5090   -8.6860 C.ar    1  UNL1        0.0889
      8 C         -21.1784   54.4776   -9.1215 C.ar    1  UNL1        0.0282
      9 C         -21.6671   53.2923   -9.6896 C.ar    1  UNL1        0.0997
     10 N         -22.9038   53.0506  -10.1594 N.ar    1  UNL1       -0.2137
     11 C         -22.8090   51.7629  -10.5929 C.ar    1  UNL1        0.1983
     12 N         -21.5881   51.2033  -10.4080 N.ar    1  UNL1       -0.3255
     13 C         -20.8818   52.1855   -9.8380 C.ar    1  UNL1        0.0755
     14 O         -17.7063   53.1710   -8.5660 O.3     1  UNL1       -0.4824
     15 H         -21.2742   50.2378  -10.6529 H       1  UNL1        0.1686
     16 C         -19.2584   55.7370   -8.0845 C.2     1  UNL1        0.2535
     17 O         -18.5048   55.6427   -7.0772 O.2     1  UNL1       -0.2697
     18 N         -19.5096   57.0249   -8.6696 N.am    1  UNL1       -0.2657
     19 H         -19.6662   57.0739   -9.7014 H       1  UNL1        0.1566
     20 C         -19.4051   58.2664   -7.9557 C.ar    1  UNL1        0.1344
     21 C         -19.6005   58.3361   -6.5671 C.ar    1  UNL1        0.0344
     22 C         -19.5161   59.5709   -5.9217 C.ar    1  UNL1        0.0083
     23 C         -19.2311   60.7333   -6.6539 C.ar    1  UNL1        0.0906
     24 C         -19.0891   60.6255   -8.0462 C.ar    1  UNL1        0.1041
     25 N         -19.1765   59.4122   -8.6529 N.ar    1  UNL1       -0.2291
     26 C         -19.1889   62.0793   -5.9767 C.3     1  UNL1        0.4200
     27 F         -19.0822   61.9317   -4.6046 F       1  UNL1       -0.1658
     28 F         -20.3497   62.7716   -6.2667 F       1  UNL1       -0.1658
     29 F         -18.1026   62.8142   -6.4191 F       1  UNL1       -0.1658
     30 N         -23.9058   51.0475  -11.1727 N.pl3   1  UNL1       -0.2827
     31 H         -23.7008   50.3399  -11.9134 H       1  UNL1        0.1551
     32 C         -25.2314   51.1122  -10.6285 C.ar    1  UNL1        0.0726
     33 C         -26.3451   51.2998  -11.4723 C.ar    1  UNL1        0.0720
     34 CL        -26.1670   51.3986  -13.2202 Cl      1  UNL1       -0.0809
     35 C         -27.6312   51.3593  -10.9277 C.ar    1  UNL1        0.0136
     36 C         -27.8206   51.2234   -9.5523 C.ar    1  UNL1        0.0132
     37 C         -26.7268   51.0182   -8.7067 C.ar    1  UNL1        0.0695
     38 CL        -27.0137   50.8438   -6.9800 Cl      1  UNL1       -0.0813
     39 C         -25.4276   50.9560   -9.2420 C.ar    1  UNL1        0.0824
     40 CL        -24.0417   50.7165   -8.1780 Cl      1  UNL1       -0.0800
@<TRIPOS>BOND
     1     1     2    1
     2     2     3    1
     3     2     4    1
     4     4     5    1
     5     5     6   ar
     6     6     7   ar
     7     7    16    1
     8    16    17    2
     9    16    18   am
    10    18    20    1
    11    20    21   ar
    12    21    22   ar
    13    22    23   ar
    14    23    26    1
    15    26    27    1
    16    26    28    1
    17    26    29    1
    18    23    24   ar
    19    24    25   ar
    20     7     8   ar
    21     8     9   ar
    22     9    10   ar
    23    10    11   ar
    24    11    30    1
    25    30    32    1
    26    32    33   ar
    27    33    34    1
    28    33    35   ar
    29    35    36   ar
    30    36    37   ar
    31    37    38    1
    32    37    39   ar
    33    39    40    1
    34    11    12   ar
    35    12    13   ar
    36     6    14    1
    37    14     2    1
    38    13     5   ar
    39    25    20   ar
    40    13     9   ar
    41    39    32   ar
    42    18    19    1
    43    30    31    1
    44    12    15    1
@<TRIPOS>MOLECULE
*****
 40 44 0 0 0
SMALL
GASTEIGER

@<TRIPOS>ATOM
      1 C         -30.2528   52.8565  -12.3429 C.3     1  UNL1        0.0439
      2 C         -29.8310   51.4448  -11.9146 C.3     1  UNL1        0.1375
      3 C         -29.9875   50.4618  -13.0823 C.3     1  UNL1        0.0439
      4 C         -30.6339   50.9676  -10.6583 C.3     1  UNL1        0.0709
      5 C         -29.5584   50.7688   -9.6550 C.ar    1  UNL1        0.0325
      6 C         -28.3299   51.0651  -10.1914 C.ar    1  UNL1        0.1401
      7 C         -27.1329   50.9713   -9.4348 C.ar    1  UNL1        0.0889
      8 C         -27.2374   50.5773   -8.0718 C.ar    1  UNL1        0.0282
      9 C         -28.5098   50.2863   -7.5593 C.ar    1  UNL1        0.0997
     10 N         -28.8281   49.8974   -6.3118 N.ar    1  UNL1       -0.2137
     11 C         -30.1827   49.7711   -6.3781 C.ar    1  UNL1        0.1983
     12 N         -30.7077   50.0536   -7.5957 N.ar    1  UNL1       -0.3255
     13 C         -29.6354   50.3778   -8.3261 C.ar    1  UNL1        0.0755
     14 O         -28.4599   51.4694  -11.5041 O.3     1  UNL1       -0.4824
     15 H         -31.7088   50.0257   -7.8918 H       1  UNL1        0.1686
     16 C         -25.8139   51.2943  -10.0232 C.2     1  UNL1        0.2535
     17 O         -25.4907   50.7899  -11.1333 O.2     1  UNL1       -0.2697
     18 N         -24.9265   52.2192   -9.3742 N.am    1  UNL1       -0.2657
     19 H         -25.3475   52.9810   -8.7962 H       1  UNL1        0.1566
     20 C         -23.5080   52.2604   -9.5930 C.ar    1  UNL1        0.1344
     21 C         -22.9654   52.5663  -10.8513 C.ar    1  UNL1        0.0344
     22 C         -21.5801   52.5665  -11.0214 C.ar    1  UNL1        0.0083
     23 C         -20.7350   52.2700   -9.9414 C.ar    1  UNL1        0.0906
     24 C         -21.3202   51.9242   -8.7132 C.ar    1  UNL1        0.1041
     25 N         -22.6721   51.9298   -8.5715 N.ar    1  UNL1       -0.2291
     26 C         -19.2400   52.2159  -10.1252 C.3     1  UNL1        0.4200
     27 F         -18.5917   52.6041   -8.9654 F       1  UNL1       -0.1658
     28 F         -18.8762   53.0674  -11.1515 F       1  UNL1       -0.1658
     29 F         -18.8332   50.9307  -10.4394 F       1  UNL1       -0.1658
     30 N         -30.9869   49.3536   -5.2691 N.pl3   1  UNL1       -0.2827
     31 H         -31.9646   49.7153   -5.2009 H       1  UNL1        0.1551
     32 C         -30.5764   48.3040   -4.3818 C.ar    1  UNL1        0.0726
     33 C         -30.7641   48.4267   -2.9899 C.ar    1  UNL1        0.0720
     34 CL        -31.5602   49.8316   -2.2907 Cl      1  UNL1       -0.0809
     35 C         -30.3602   47.3950   -2.1375 C.ar    1  UNL1        0.0136
     36 C         -29.7809   46.2375   -2.6580 C.ar    1  UNL1        0.0132
     37 C         -29.6063   46.0953   -4.0374 C.ar    1  UNL1        0.0695
     38 CL        -28.8792   44.6151   -4.6496 Cl      1  UNL1       -0.0813
     39 C         -30.0086   47.1258   -4.9059 C.ar    1  UNL1        0.0824
     40 CL        -29.7733   46.9602   -6.6459 Cl      1  UNL1       -0.0800
@<TRIPOS>BOND
     1     1     2    1
     2     2     3    1
     3     2     4    1
     4     4     5    1
     5     5     6   ar
     6     6     7   ar
     7     7    16    1
     8    16    17    2
     9    16    18   am
    10    18    20    1
    11    20    21   ar
    12    21    22   ar
    13    22    23   ar
    14    23    26    1
    15    26    27    1
    16    26    28    1
    17    26    29    1
    18    23    24   ar
    19    24    25   ar
    20     7     8   ar
    21     8     9   ar
    22     9    10   ar
    23    10    11   ar
    24    11    30    1
    25    30    32    1
    26    32    33   ar
    27    33    34    1
    28    33    35   ar
    29    35    36   ar
    30    36    37   ar
    31    37    38    1
    32    37    39   ar
    33    39    40    1
    34    11    12   ar
    35    12    13   ar
    36     6    14    1
    37    14     2    1
    38    13     5   ar
    39    25    20   ar
    40    13     9   ar
    41    39    32   ar
    42    18    19    1
    43    30    31    1
    44    12    15    1
