@<TRIPOS>MOLECULE
*****
 41 45 0 0 0
SMALL
GASTEIGER

@<TRIPOS>ATOM
      1 C          -6.1598   -8.4259   29.8740 C.3     1  UNL1        0.0439
      2 C          -6.5058   -9.6911   30.6706 C.3     1  UNL1        0.1375
      3 C          -5.8452   -9.6503   32.0544 C.3     1  UNL1        0.0439
      4 C          -6.1040  -10.9831   29.8832 C.3     1  UNL1        0.0709
      5 C          -7.4189  -11.6309   29.6511 C.ar    1  UNL1        0.0325
      6 C          -8.4313  -10.8900   30.2070 C.ar    1  UNL1        0.1401
      7 C          -9.7905  -11.2863   30.1223 C.ar    1  UNL1        0.0888
      8 C         -10.0875  -12.5123   29.4672 C.ar    1  UNL1        0.0282
      9 C          -9.0258  -13.2450   28.9172 C.ar    1  UNL1        0.0997
     10 N          -9.0858  -14.4105   28.2489 N.ar    1  UNL1       -0.2137
     11 C          -7.7777  -14.6510   27.9551 C.ar    1  UNL1        0.1984
     12 N          -6.9248  -13.6941   28.3971 N.ar    1  UNL1       -0.3255
     13 C          -7.7321  -12.8172   29.0034 C.ar    1  UNL1        0.0755
     14 O          -7.9259   -9.7678   30.8298 O.3     1  UNL1       -0.4824
     15 H          -5.8869  -13.6516   28.2892 H       1  UNL1        0.1686
     16 C         -10.8808  -10.4628   30.6937 C.2     1  UNL1        0.2525
     17 O         -10.8862   -9.2208   30.4801 O.2     1  UNL1       -0.2697
     18 N         -11.9517  -11.0373   31.4611 N.am    1  UNL1       -0.2785
     19 H         -12.8807  -10.5608   31.4158 H       1  UNL1        0.1552
     20 C         -11.8101  -12.1658   32.3446 C.ar    1  UNL1        0.0784
     21 C         -12.4879  -13.3748   32.1001 C.ar    1  UNL1        0.0231
     22 C         -12.3703  -14.4586   32.9901 C.ar    1  UNL1        0.1002
     23 C         -11.5252  -14.3354   34.1075 C.ar    1  UNL1        0.1463
     24 F         -11.3734  -15.3676   34.9758 F       1  UNL1       -0.2042
     25 C         -10.8272  -13.1477   34.3358 C.ar    1  UNL1        0.0605
     26 C         -10.9661  -12.0681   33.4615 C.ar    1  UNL1        0.1557
     27 F         -10.2957  -10.9166   33.7169 F       1  UNL1       -0.2028
     28 C         -13.1129  -15.7516   32.7510 C.3     1  UNL1        0.4207
     29 F         -14.0039  -16.0287   33.7738 F       1  UNL1       -0.1658
     30 F         -12.2105  -16.7967   32.6663 F       1  UNL1       -0.1658
     31 F         -13.8158  -15.6640   31.5633 F       1  UNL1       -0.1658
     32 N          -7.3365  -15.7951   27.2149 N.pl3   1  UNL1       -0.2816
     33 H          -6.9869  -16.6220   27.7493 H       1  UNL1        0.1551
     34 C          -7.1216  -15.7555   25.7975 C.ar    1  UNL1        0.0889
     35 C          -5.9509  -15.1636   25.2966 C.ar    1  UNL1        0.1543
     36 F          -5.0429  -14.6194   26.1453 F       1  UNL1       -0.2028
     37 C          -5.7213  -15.1116   23.9186 C.ar    1  UNL1        0.0310
     38 C          -6.6495  -15.6618   23.0324 C.ar    1  UNL1        0.0033
     39 C          -7.8048  -16.2758   23.5216 C.ar    1  UNL1        0.0128
     40 C          -8.0450  -16.3330   24.8999 C.ar    1  UNL1        0.0733
     41 CL         -9.4664  -17.1996   25.4701 Cl      1  UNL1       -0.0809
@<TRIPOS>BOND
     1     1     2    1
     2     2     3    1
     3     2     4    1
     4     4     5    1
     5     5     6   ar
     6     6     7   ar
     7     7    16    1
     8    16    17    2
     9    16    18   am
    10    18    20    1
    11    20    21   ar
    12    21    22   ar
    13    22    28    1
    14    28    29    1
    15    28    30    1
    16    28    31    1
    17    22    23   ar
    18    23    24    1
    19    23    25   ar
    20    25    26   ar
    21    26    27    1
    22     7     8   ar
    23     8     9   ar
    24     9    10   ar
    25    10    11   ar
    26    11    32    1
    27    32    34    1
    28    34    35   ar
    29    35    36    1
    30    35    37   ar
    31    37    38   ar
    32    38    39   ar
    33    39    40   ar
    34    40    41    1
    35    11    12   ar
    36    12    13   ar
    37     6    14    1
    38    14     2    1
    39    13     5   ar
    40    26    20   ar
    41    13     9   ar
    42    40    34   ar
    43    18    19    1
    44    32    33    1
    45    12    15    1
@<TRIPOS>MOLECULE
*****
 41 45 0 0 0
SMALL
GASTEIGER

@<TRIPOS>ATOM
      1 C          -5.2772   -9.5026   28.0850 C.3     1  UNL1        0.0439
      2 C          -5.2884  -10.2787   29.4089 C.3     1  UNL1        0.1375
      3 C          -3.9307  -10.9519   29.6468 C.3     1  UNL1        0.0439
      4 C          -6.4568  -11.3200   29.4446 C.3     1  UNL1        0.0709
      5 C          -7.2959  -10.8120   30.5583 C.ar    1  UNL1        0.0325
      6 C          -6.7393   -9.6873   31.1134 C.ar    1  UNL1        0.1401
      7 C          -7.3472   -8.9994   32.1945 C.ar    1  UNL1        0.0888
      8 C          -8.5529   -9.5301   32.7283 C.ar    1  UNL1        0.0282
      9 C          -9.0880  -10.6846   32.1389 C.ar    1  UNL1        0.0997
     10 N         -10.2155  -11.3363   32.4747 N.ar    1  UNL1       -0.2137
     11 C         -10.2396  -12.3652   31.5825 C.ar    1  UNL1        0.1984
     12 N          -9.1970  -12.3724   30.7156 N.ar    1  UNL1       -0.3255
     13 C          -8.4810  -11.3052   31.0851 C.ar    1  UNL1        0.0755
     14 O          -5.5559   -9.3686   30.4804 O.3     1  UNL1       -0.4824
     15 H          -9.0007  -13.0484   29.9442 H       1  UNL1        0.1686
     16 C          -6.7587   -7.7656   32.7645 C.2     1  UNL1        0.2525
     17 O          -6.0660   -7.8462   33.8142 O.2     1  UNL1       -0.2697
     18 N          -6.9269   -6.4803   32.1437 N.am    1  UNL1       -0.2785
     19 H          -6.1546   -5.7867   32.2651 H       1  UNL1        0.1552
     20 C          -8.1127   -6.0601   31.4428 C.ar    1  UNL1        0.0784
     21 C          -9.3642   -6.6474   31.7067 C.ar    1  UNL1        0.0231
     22 C         -10.5095   -6.2539   30.9897 C.ar    1  UNL1        0.1002
     23 C         -10.3974   -5.2276   30.0346 C.ar    1  UNL1        0.1463
     24 F         -11.4854   -4.8100   29.3385 F       1  UNL1       -0.2042
     25 C          -9.1628   -4.6216   29.7926 C.ar    1  UNL1        0.0605
     26 C          -8.0259   -5.0325   30.4910 C.ar    1  UNL1        0.1557
     27 F          -6.8331   -4.4447   30.2221 F       1  UNL1       -0.2028
     28 C         -11.8524   -6.8949   31.2469 C.3     1  UNL1        0.4207
     29 F         -12.5360   -7.1448   30.0691 F       1  UNL1       -0.1658
     30 F         -12.6260   -6.0552   32.0281 F       1  UNL1       -0.1658
     31 F         -11.6689   -8.0918   31.9147 F       1  UNL1       -0.1658
     32 N         -11.2886  -13.3394   31.5352 N.pl3   1  UNL1       -0.2816
     33 H         -11.8054  -13.4627   30.6356 H       1  UNL1        0.1551
     34 C         -11.8151  -13.9575   32.7173 C.ar    1  UNL1        0.0889
     35 C         -12.9137  -14.8252   32.6077 C.ar    1  UNL1        0.1543
     36 F         -13.4808  -15.0605   31.3977 F       1  UNL1       -0.2028
     37 C         -13.4451  -15.4371   33.7467 C.ar    1  UNL1        0.0310
     38 C         -12.8762  -15.1998   34.9995 C.ar    1  UNL1        0.0033
     39 C         -11.7672  -14.3587   35.1161 C.ar    1  UNL1        0.0128
     40 C         -11.2272  -13.7402   33.9818 C.ar    1  UNL1        0.0733
     41 CL         -9.7737  -12.7659   34.1675 Cl      1  UNL1       -0.0809
@<TRIPOS>BOND
     1     1     2    1
     2     2     3    1
     3     2     4    1
     4     4     5    1
     5     5     6   ar
     6     6     7   ar
     7     7    16    1
     8    16    17    2
     9    16    18   am
    10    18    20    1
    11    20    21   ar
    12    21    22   ar
    13    22    28    1
    14    28    29    1
    15    28    30    1
    16    28    31    1
    17    22    23   ar
    18    23    24    1
    19    23    25   ar
    20    25    26   ar
    21    26    27    1
    22     7     8   ar
    23     8     9   ar
    24     9    10   ar
    25    10    11   ar
    26    11    32    1
    27    32    34    1
    28    34    35   ar
    29    35    36    1
    30    35    37   ar
    31    37    38   ar
    32    38    39   ar
    33    39    40   ar
    34    40    41    1
    35    11    12   ar
    36    12    13   ar
    37     6    14    1
    38    14     2    1
    39    13     5   ar
    40    26    20   ar
    41    13     9   ar
    42    40    34   ar
    43    18    19    1
    44    32    33    1
    45    12    15    1
@<TRIPOS>MOLECULE
*****
 41 45 0 0 0
SMALL
GASTEIGER

@<TRIPOS>ATOM
      1 C          -6.0927   -9.9139   28.3153 C.3     1  UNL1        0.0439
      2 C          -5.6199  -10.3972   29.6930 C.3     1  UNL1        0.1375
      3 C          -4.2175  -11.0106   29.5934 C.3     1  UNL1        0.0439
      4 C          -6.6411  -11.4043   30.3204 C.3     1  UNL1        0.0709
      5 C          -7.1028  -10.6727   31.5263 C.ar    1  UNL1        0.0325
      6 C          -6.4713   -9.4589   31.6307 C.ar    1  UNL1        0.1401
      7 C          -6.7375   -8.5589   32.6940 C.ar    1  UNL1        0.0888
      8 C          -7.6652   -8.9627   33.6924 C.ar    1  UNL1        0.0282
      9 C          -8.2856  -10.2128   33.5550 C.ar    1  UNL1        0.0997
     10 N          -9.1960  -10.7765   34.3686 N.ar    1  UNL1       -0.2137
     11 C          -9.4416  -11.9686   33.7572 C.ar    1  UNL1        0.1984
     12 N          -8.7407  -12.1598   32.6123 N.ar    1  UNL1       -0.3255
     13 C          -8.0157  -11.0413   32.5039 C.ar    1  UNL1        0.0755
     14 O          -5.5830   -9.2829   30.5903 O.3     1  UNL1       -0.4824
     15 H          -8.7625  -12.9823   31.9692 H       1  UNL1        0.1686
     16 C          -6.0784   -7.2354   32.7800 C.2     1  UNL1        0.2525
     17 O          -5.2269   -7.0334   33.6869 O.2     1  UNL1       -0.2697
     18 N          -6.3560   -6.1803   31.8445 N.am    1  UNL1       -0.2785
     19 H          -5.5814   -5.5103   31.6366 H       1  UNL1        0.1552
     20 C          -7.6424   -5.9381   31.2438 C.ar    1  UNL1        0.0784
     21 C          -8.7199   -6.8211   31.4434 C.ar    1  UNL1        0.0231
     22 C          -9.9618   -6.5933   30.8218 C.ar    1  UNL1        0.1002
     23 C         -10.1289   -5.4410   30.0330 C.ar    1  UNL1        0.1463
     24 F         -11.3190   -5.1801   29.4345 F       1  UNL1       -0.2042
     25 C          -9.0706   -4.5467   29.8583 C.ar    1  UNL1        0.0605
     26 C          -7.8342   -4.7906   30.4591 C.ar    1  UNL1        0.1557
     27 F          -6.8142   -3.9193   30.2560 F       1  UNL1       -0.2028
     28 C         -11.1172   -7.5476   31.0086 C.3     1  UNL1        0.4207
     29 F         -11.5745   -8.0432   29.7994 F       1  UNL1       -0.1658
     30 F         -12.1638   -6.8932   31.6333 F       1  UNL1       -0.1658
     31 F         -10.7125   -8.6089   31.7974 F       1  UNL1       -0.1658
     32 N         -10.3816  -12.9279   34.2552 N.pl3   1  UNL1       -0.2816
     33 H         -10.1077  -13.5000   35.0854 H       1  UNL1        0.1551
     34 C         -11.5549  -13.3043   33.5215 C.ar    1  UNL1        0.0889
     35 C         -11.9712  -14.6454   33.5327 C.ar    1  UNL1        0.1543
     36 F         -11.2592  -15.5765   34.2160 F       1  UNL1       -0.2028
     37 C         -13.1105  -15.0357   32.8229 C.ar    1  UNL1        0.0310
     38 C         -13.8500  -14.0900   32.1099 C.ar    1  UNL1        0.0033
     39 C         -13.4591  -12.7490   32.1134 C.ar    1  UNL1        0.0128
     40 C         -12.3193  -12.3472   32.8205 C.ar    1  UNL1        0.0733
     41 CL        -11.9227  -10.6336   32.8717 Cl      1  UNL1       -0.0809
@<TRIPOS>BOND
     1     1     2    1
     2     2     3    1
     3     2     4    1
     4     4     5    1
     5     5     6   ar
     6     6     7   ar
     7     7    16    1
     8    16    17    2
     9    16    18   am
    10    18    20    1
    11    20    21   ar
    12    21    22   ar
    13    22    28    1
    14    28    29    1
    15    28    30    1
    16    28    31    1
    17    22    23   ar
    18    23    24    1
    19    23    25   ar
    20    25    26   ar
    21    26    27    1
    22     7     8   ar
    23     8     9   ar
    24     9    10   ar
    25    10    11   ar
    26    11    32    1
    27    32    34    1
    28    34    35   ar
    29    35    36    1
    30    35    37   ar
    31    37    38   ar
    32    38    39   ar
    33    39    40   ar
    34    40    41    1
    35    11    12   ar
    36    12    13   ar
    37     6    14    1
    38    14     2    1
    39    13     5   ar
    40    26    20   ar
    41    13     9   ar
    42    40    34   ar
    43    18    19    1
    44    32    33    1
    45    12    15    1
@<TRIPOS>MOLECULE
*****
 41 45 0 0 0
SMALL
GASTEIGER

@<TRIPOS>ATOM
      1 C          -5.4102   -8.6218   30.0928 C.3     1  UNL1        0.0439
      2 C          -5.6885   -9.9461   30.8166 C.3     1  UNL1        0.1375
      3 C          -4.5997  -10.2252   31.8606 C.3     1  UNL1        0.0439
      4 C          -5.8227  -11.1292   29.8003 C.3     1  UNL1        0.0709
      5 C          -7.2327  -11.5502   29.9932 C.ar    1  UNL1        0.0325
      6 C          -7.8412  -10.7864   30.9572 C.ar    1  UNL1        0.1401
      7 C          -9.1957  -10.9807   31.3302 C.ar    1  UNL1        0.0888
      8 C          -9.9171  -12.0295   30.6978 C.ar    1  UNL1        0.0282
      9 C          -9.2596  -12.7928   29.7222 C.ar    1  UNL1        0.0997
     10 N          -9.7560  -13.8115   28.9980 N.ar    1  UNL1       -0.2137
     11 C          -8.6940  -14.1693   28.2237 C.ar    1  UNL1        0.1984
     12 N          -7.5819  -13.4207   28.4271 N.ar    1  UNL1       -0.3255
     13 C          -7.9592  -12.5595   29.3779 C.ar    1  UNL1        0.0755
     14 O          -6.9576   -9.8609   31.4724 O.3     1  UNL1       -0.4824
     15 H          -6.6540  -13.4975   27.9541 H       1  UNL1        0.1686
     16 C          -9.8556  -10.1285   32.3459 C.2     1  UNL1        0.2525
     17 O          -9.1806   -9.2400   32.9316 O.2     1  UNL1       -0.2697
     18 N         -11.2504  -10.2613   32.6665 N.am    1  UNL1       -0.2785
     19 H         -11.7540   -9.3985   32.9736 H       1  UNL1        0.1552
     20 C         -11.9726  -11.5072   32.6726 C.ar    1  UNL1        0.0784
     21 C         -11.6458  -12.5369   33.5747 C.ar    1  UNL1        0.0231
     22 C         -12.3348  -13.7637   33.5469 C.ar    1  UNL1        0.1002
     23 C         -13.3914  -13.9325   32.6341 C.ar    1  UNL1        0.1463
     24 F         -14.0898  -15.0957   32.5933 F       1  UNL1       -0.2042
     25 C         -13.7382  -12.9012   31.7587 C.ar    1  UNL1        0.0605
     26 C         -13.0356  -11.6948   31.7758 C.ar    1  UNL1        0.1557
     27 F         -13.3759  -10.7161   30.9000 F       1  UNL1       -0.2028
     28 C         -11.9758  -14.8844   34.4932 C.3     1  UNL1        0.4207
     29 F         -11.7556  -16.0741   33.8201 F       1  UNL1       -0.1658
     30 F         -13.0071  -15.0799   35.3943 F       1  UNL1       -0.1658
     31 F         -10.8273  -14.5491   35.1866 F       1  UNL1       -0.1658
     32 N          -8.7488  -15.2210   27.2529 N.pl3   1  UNL1       -0.2816
     33 H          -9.4288  -15.9989   27.4080 H       1  UNL1        0.1551
     34 C          -7.7527  -15.3761   26.2329 C.ar    1  UNL1        0.0889
     35 C          -6.4106  -15.5556   26.6051 C.ar    1  UNL1        0.1543
     36 F          -6.0599  -15.5638   27.9158 F       1  UNL1       -0.2028
     37 C          -5.4223  -15.7065   25.6281 C.ar    1  UNL1        0.0310
     38 C          -5.7669  -15.6940   24.2751 C.ar    1  UNL1        0.0033
     39 C          -7.1023  -15.5419   23.8948 C.ar    1  UNL1        0.0128
     40 C          -8.1002  -15.3894   24.8651 C.ar    1  UNL1        0.0733
     41 CL         -9.7768  -15.2963   24.3390 Cl      1  UNL1       -0.0809
@<TRIPOS>BOND
     1     1     2    1
     2     2     3    1
     3     2     4    1
     4     4     5    1
     5     5     6   ar
     6     6     7   ar
     7     7    16    1
     8    16    17    2
     9    16    18   am
    10    18    20    1
    11    20    21   ar
    12    21    22   ar
    13    22    28    1
    14    28    29    1
    15    28    30    1
    16    28    31    1
    17    22    23   ar
    18    23    24    1
    19    23    25   ar
    20    25    26   ar
    21    26    27    1
    22     7     8   ar
    23     8     9   ar
    24     9    10   ar
    25    10    11   ar
    26    11    32    1
    27    32    34    1
    28    34    35   ar
    29    35    36    1
    30    35    37   ar
    31    37    38   ar
    32    38    39   ar
    33    39    40   ar
    34    40    41    1
    35    11    12   ar
    36    12    13   ar
    37     6    14    1
    38    14     2    1
    39    13     5   ar
    40    26    20   ar
    41    13     9   ar
    42    40    34   ar
    43    18    19    1
    44    32    33    1
    45    12    15    1
@<TRIPOS>MOLECULE
*****
 41 45 0 0 0
SMALL
GASTEIGER

@<TRIPOS>ATOM
      1 C          -5.5606   -9.7355   27.5199 C.3     1  UNL1        0.0439
      2 C          -6.0033   -9.6655   28.9877 C.3     1  UNL1        0.1375
      3 C          -4.8130   -9.3164   29.8902 C.3     1  UNL1        0.0439
      4 C          -6.6889  -10.9994   29.4362 C.3     1  UNL1        0.0709
      5 C          -8.0717  -10.5547   29.7403 C.ar    1  UNL1        0.0325
      6 C          -8.2043   -9.2040   29.5376 C.ar    1  UNL1        0.1401
      7 C          -9.4315   -8.5258   29.7512 C.ar    1  UNL1        0.0888
      8 C         -10.5374   -9.2826   30.2250 C.ar    1  UNL1        0.0282
      9 C         -10.3617  -10.6593   30.4266 C.ar    1  UNL1        0.0997
     10 N         -11.2715  -11.5542   30.8510 N.ar    1  UNL1       -0.2137
     11 C         -10.5614  -12.7166   30.8601 C.ar    1  UNL1        0.1984
     12 N          -9.2740  -12.5834   30.4560 N.ar    1  UNL1       -0.3255
     13 C          -9.1677  -11.2774   30.1892 C.ar    1  UNL1        0.0755
     14 O          -7.0082   -8.6557   29.1237 O.3     1  UNL1       -0.4824
     15 H          -8.5416  -13.3232   30.3723 H       1  UNL1        0.1686
     16 C          -9.5760   -7.0741   29.4956 C.2     1  UNL1        0.2525
     17 O         -10.3637   -6.6873   28.5913 O.2     1  UNL1       -0.2697
     18 N          -8.8685   -6.0878   30.2652 N.am    1  UNL1       -0.2785
     19 H          -9.3330   -5.1608   30.3958 H       1  UNL1        0.1552
     20 C          -7.5397   -6.2615   30.7927 C.ar    1  UNL1        0.0784
     21 C          -7.2727   -7.2016   31.8054 C.ar    1  UNL1        0.0231
     22 C          -5.9772   -7.3369   32.3385 C.ar    1  UNL1        0.1002
     23 C          -4.9369   -6.5511   31.8112 C.ar    1  UNL1        0.1463
     24 F          -3.6717   -6.6696   32.2885 F       1  UNL1       -0.2042
     25 C          -5.1928   -5.6393   30.7848 C.ar    1  UNL1        0.0605
     26 C          -6.4848   -5.4936   30.2762 C.ar    1  UNL1        0.1557
     27 F          -6.7133   -4.5848   29.2950 F       1  UNL1       -0.2028
     28 C          -5.6847   -8.3245   33.4427 C.3     1  UNL1        0.4207
     29 F          -4.8558   -7.7824   34.4102 F       1  UNL1       -0.1658
     30 F          -5.0625   -9.4414   32.9143 F       1  UNL1       -0.1658
     31 F          -6.8709   -8.7084   34.0409 F       1  UNL1       -0.1658
     32 N         -11.1268  -13.9795   31.2304 N.pl3   1  UNL1       -0.2816
     33 H         -11.3073  -14.6782   30.4748 H       1  UNL1        0.1551
     34 C         -11.6786  -14.2208   32.5318 C.ar    1  UNL1        0.0889
     35 C         -12.7067  -15.1661   32.6776 C.ar    1  UNL1        0.1543
     36 F         -13.1838  -15.8297   31.5946 F       1  UNL1       -0.2028
     37 C         -13.2611  -15.4161   33.9363 C.ar    1  UNL1        0.0310
     38 C         -12.7849  -14.7366   35.0592 C.ar    1  UNL1        0.0033
     39 C         -11.7450  -13.8131   34.9291 C.ar    1  UNL1        0.0128
     40 C         -11.1827  -13.5547   33.6730 C.ar    1  UNL1        0.0733
     41 CL         -9.8131  -12.4542   33.5757 Cl      1  UNL1       -0.0809
@<TRIPOS>BOND
     1     1     2    1
     2     2     3    1
     3     2     4    1
     4     4     5    1
     5     5     6   ar
     6     6     7   ar
     7     7    16    1
     8    16    17    2
     9    16    18   am
    10    18    20    1
    11    20    21   ar
    12    21    22   ar
    13    22    28    1
    14    28    29    1
    15    28    30    1
    16    28    31    1
    17    22    23   ar
    18    23    24    1
    19    23    25   ar
    20    25    26   ar
    21    26    27    1
    22     7     8   ar
    23     8     9   ar
    24     9    10   ar
    25    10    11   ar
    26    11    32    1
    27    32    34    1
    28    34    35   ar
    29    35    36    1
    30    35    37   ar
    31    37    38   ar
    32    38    39   ar
    33    39    40   ar
    34    40    41    1
    35    11    12   ar
    36    12    13   ar
    37     6    14    1
    38    14     2    1
    39    13     5   ar
    40    26    20   ar
    41    13     9   ar
    42    40    34   ar
    43    18    19    1
    44    32    33    1
    45    12    15    1
@<TRIPOS>MOLECULE
*****
 41 45 0 0 0
SMALL
GASTEIGER

@<TRIPOS>ATOM
      1 C          -5.6798  -11.1494   28.4096 C.3     1  UNL1        0.0439
      2 C          -6.2835  -10.4108   29.6117 C.3     1  UNL1        0.1375
      3 C          -5.2488   -9.4648   30.2341 C.3     1  UNL1        0.0439
      4 C          -6.8469  -11.4177   30.6698 C.3     1  UNL1        0.0709
      5 C          -8.2981  -11.1074   30.6567 C.ar    1  UNL1        0.0325
      6 C          -8.5707  -10.0914   29.7756 C.ar    1  UNL1        0.1401
      7 C          -9.8868   -9.6054   29.5681 C.ar    1  UNL1        0.0888
      8 C         -10.9375  -10.1790   30.3346 C.ar    1  UNL1        0.0282
      9 C         -10.6191  -11.2107   31.2295 C.ar    1  UNL1        0.0997
     10 N         -11.4542  -11.8949   32.0315 N.ar    1  UNL1       -0.2137
     11 C         -10.6136  -12.7586   32.6663 C.ar    1  UNL1        0.1984
     12 N          -9.3158  -12.6471   32.2899 N.ar    1  UNL1       -0.3255
     13 C          -9.3404  -11.6634   31.3844 C.ar    1  UNL1        0.0755
     14 O          -7.4122   -9.6490   29.1717 O.3     1  UNL1       -0.4824
     15 H          -8.4944  -13.1977   32.6258 H       1  UNL1        0.1686
     16 C         -10.1777   -8.5331   28.5889 C.2     1  UNL1        0.2525
     17 O         -10.5183   -8.8496   27.4176 O.2     1  UNL1       -0.2697
     18 N         -10.1128   -7.1403   28.9378 N.am    1  UNL1       -0.2785
     19 H         -10.7563   -6.4908   28.4316 H       1  UNL1        0.1552
     20 C          -9.1718   -6.5741   29.8695 C.ar    1  UNL1        0.0784
     21 C          -8.5171   -7.3746   30.8242 C.ar    1  UNL1        0.0231
     22 C          -7.6270   -6.8042   31.7531 C.ar    1  UNL1        0.1002
     23 C          -7.3613   -5.4248   31.6853 C.ar    1  UNL1        0.1463
     24 F          -6.4935   -4.8450   32.5533 F       1  UNL1       -0.2042
     25 C          -7.9860   -4.6332   30.7191 C.ar    1  UNL1        0.0605
     26 C          -8.8855   -5.2014   29.8152 C.ar    1  UNL1        0.1557
     27 F          -9.4975   -4.4081   28.9004 F       1  UNL1       -0.2028
     28 C          -6.9384   -7.6495   32.7979 C.3     1  UNL1        0.4207
     29 F          -5.5766   -7.7434   32.5664 F       1  UNL1       -0.1658
     30 F          -7.4698   -8.9267   32.7862 F       1  UNL1       -0.1658
     31 F          -7.1375   -7.0885   34.0460 F       1  UNL1       -0.1658
     32 N         -11.0585  -13.7262   33.6241 N.pl3   1  UNL1       -0.2816
     33 H         -10.4658  -13.8910   34.4686 H       1  UNL1        0.1551
     34 C         -12.1295  -14.6399   33.3507 C.ar    1  UNL1        0.0889
     35 C         -12.1196  -15.3709   32.1518 C.ar    1  UNL1        0.1543
     36 F         -11.1160  -15.1996   31.2549 F       1  UNL1       -0.2028
     37 C         -13.1543  -16.2655   31.8632 C.ar    1  UNL1        0.0310
     38 C         -14.1972  -16.4479   32.7735 C.ar    1  UNL1        0.0033
     39 C         -14.2031  -15.7448   33.9804 C.ar    1  UNL1        0.0128
     40 C         -13.1720  -14.8459   34.2795 C.ar    1  UNL1        0.0733
     41 CL        -13.1752  -14.0562   35.8520 Cl      1  UNL1       -0.0809
@<TRIPOS>BOND
     1     1     2    1
     2     2     3    1
     3     2     4    1
     4     4     5    1
     5     5     6   ar
     6     6     7   ar
     7     7    16    1
     8    16    17    2
     9    16    18   am
    10    18    20    1
    11    20    21   ar
    12    21    22   ar
    13    22    28    1
    14    28    29    1
    15    28    30    1
    16    28    31    1
    17    22    23   ar
    18    23    24    1
    19    23    25   ar
    20    25    26   ar
    21    26    27    1
    22     7     8   ar
    23     8     9   ar
    24     9    10   ar
    25    10    11   ar
    26    11    32    1
    27    32    34    1
    28    34    35   ar
    29    35    36    1
    30    35    37   ar
    31    37    38   ar
    32    38    39   ar
    33    39    40   ar
    34    40    41    1
    35    11    12   ar
    36    12    13   ar
    37     6    14    1
    38    14     2    1
    39    13     5   ar
    40    26    20   ar
    41    13     9   ar
    42    40    34   ar
    43    18    19    1
    44    32    33    1
    45    12    15    1
@<TRIPOS>MOLECULE
*****
 41 45 0 0 0
SMALL
GASTEIGER

@<TRIPOS>ATOM
      1 C          -5.0523   -8.1029   33.7948 C.3     1  UNL1        0.0439
      2 C          -6.4328   -7.9993   33.1324 C.3     1  UNL1        0.1375
      3 C          -6.8544   -6.5304   32.9997 C.3     1  UNL1        0.0439
      4 C          -7.5010   -8.8320   33.9175 C.3     1  UNL1        0.0709
      5 C          -7.8899   -9.8616   32.9220 C.ar    1  UNL1        0.0325
      6 C          -7.2074   -9.6831   31.7450 C.ar    1  UNL1        0.1401
      7 C          -7.3911  -10.5387   30.6289 C.ar    1  UNL1        0.0888
      8 C          -8.3443  -11.5869   30.7427 C.ar    1  UNL1        0.0282
      9 C          -9.0270  -11.7339   31.9589 C.ar    1  UNL1        0.0997
     10 N          -9.9488  -12.6584   32.2816 N.ar    1  UNL1       -0.2137
     11 C         -10.2628  -12.3278   33.5651 C.ar    1  UNL1        0.1984
     12 N          -9.5781  -11.2611   34.0467 N.ar    1  UNL1       -0.3255
     13 C          -8.8054  -10.8999   33.0168 C.ar    1  UNL1        0.0755
     14 O          -6.3705   -8.5899   31.8304 O.3     1  UNL1       -0.4824
     15 H          -9.6388  -10.8267   34.9944 H       1  UNL1        0.1686
     16 C          -6.6241  -10.3611   29.3744 C.2     1  UNL1        0.2525
     17 O          -5.8754  -11.2938   28.9774 O.2     1  UNL1       -0.2697
     18 N          -6.7271   -9.1697   28.5771 N.am    1  UNL1       -0.2785
     19 H          -6.5914   -9.2721   27.5459 H       1  UNL1        0.1552
     20 C          -6.9203   -7.8450   29.1080 C.ar    1  UNL1        0.0784
     21 C          -8.2101   -7.3160   29.3007 C.ar    1  UNL1        0.0231
     22 C          -8.3860   -6.0068   29.7861 C.ar    1  UNL1        0.1002
     23 C          -7.2523   -5.2460   30.1235 C.ar    1  UNL1        0.1463
     24 F          -7.3858   -3.9868   30.6125 F       1  UNL1       -0.2042
     25 C          -5.9718   -5.7797   29.9625 C.ar    1  UNL1        0.0605
     26 C          -5.8036   -7.0709   29.4588 C.ar    1  UNL1        0.1557
     27 F          -4.5491   -7.5591   29.2895 F       1  UNL1       -0.2028
     28 C          -9.7649   -5.4201   29.9728 C.3     1  UNL1        0.4207
     29 F          -9.8625   -4.1531   29.4232 F       1  UNL1       -0.1658
     30 F         -10.0528   -5.3309   31.3230 F       1  UNL1       -0.1658
     31 F         -10.6982   -6.2395   29.3647 F       1  UNL1       -0.1658
     32 N         -11.2078  -13.0584   34.3557 N.pl3   1  UNL1       -0.2816
     33 H         -11.0090  -13.1779   35.3744 H       1  UNL1        0.1551
     34 C         -12.2629  -13.8323   33.7689 C.ar    1  UNL1        0.0889
     35 C         -12.5390  -15.1127   34.2751 C.ar    1  UNL1        0.1543
     36 F         -11.8022  -15.6174   35.2965 F       1  UNL1       -0.2028
     37 C         -13.5613  -15.8859   33.7173 C.ar    1  UNL1        0.0310
     38 C         -14.3241  -15.3825   32.6617 C.ar    1  UNL1        0.0033
     39 C         -14.0746  -14.1000   32.1677 C.ar    1  UNL1        0.0128
     40 C         -13.0527  -13.3172   32.7187 C.ar    1  UNL1        0.0733
     41 CL        -12.8401  -11.6741   32.1258 Cl      1  UNL1       -0.0809
@<TRIPOS>BOND
     1     1     2    1
     2     2     3    1
     3     2     4    1
     4     4     5    1
     5     5     6   ar
     6     6     7   ar
     7     7    16    1
     8    16    17    2
     9    16    18   am
    10    18    20    1
    11    20    21   ar
    12    21    22   ar
    13    22    28    1
    14    28    29    1
    15    28    30    1
    16    28    31    1
    17    22    23   ar
    18    23    24    1
    19    23    25   ar
    20    25    26   ar
    21    26    27    1
    22     7     8   ar
    23     8     9   ar
    24     9    10   ar
    25    10    11   ar
    26    11    32    1
    27    32    34    1
    28    34    35   ar
    29    35    36    1
    30    35    37   ar
    31    37    38   ar
    32    38    39   ar
    33    39    40   ar
    34    40    41    1
    35    11    12   ar
    36    12    13   ar
    37     6    14    1
    38    14     2    1
    39    13     5   ar
    40    26    20   ar
    41    13     9   ar
    42    40    34   ar
    43    18    19    1
    44    32    33    1
    45    12    15    1
@<TRIPOS>MOLECULE
*****
 41 45 0 0 0
SMALL
GASTEIGER

@<TRIPOS>ATOM
      1 C          -6.2802   -8.0182   29.8376 C.3     1  UNL1        0.0439
      2 C          -6.5819   -9.2534   30.6970 C.3     1  UNL1        0.1375
      3 C          -5.9104   -9.1277   32.0704 C.3     1  UNL1        0.0439
      4 C          -6.1497  -10.5694   29.9676 C.3     1  UNL1        0.0709
      5 C          -7.4472  -11.2650   29.7801 C.ar    1  UNL1        0.0325
      6 C          -8.4758  -10.5278   30.3108 C.ar    1  UNL1        0.1401
      7 C          -9.8235  -10.9665   30.2591 C.ar    1  UNL1        0.0888
      8 C         -10.0906  -12.2304   29.6660 C.ar    1  UNL1        0.0282
      9 C          -9.0129  -12.9577   29.1404 C.ar    1  UNL1        0.0997
     10 N          -9.0450  -14.1550   28.5288 N.ar    1  UNL1       -0.2137
     11 C          -7.7332  -14.3716   28.2331 C.ar    1  UNL1        0.1984
     12 N          -6.9045  -13.3707   28.6204 N.ar    1  UNL1       -0.3255
     13 C          -7.7315  -12.4894   29.1928 C.ar    1  UNL1        0.0755
     14 O          -7.9977   -9.3631   30.8743 O.3     1  UNL1       -0.4824
     15 H          -5.8693  -13.3036   28.4998 H       1  UNL1        0.1686
     16 C         -10.9323  -10.1483   30.8020 C.2     1  UNL1        0.2525
     17 O         -10.9796   -8.9200   30.5241 O.2     1  UNL1       -0.2697
     18 N         -11.9747  -10.7146   31.6134 N.am    1  UNL1       -0.2785
     19 H         -12.9189  -10.2702   31.5563 H       1  UNL1        0.1552
     20 C         -11.7865  -11.7902   32.5524 C.ar    1  UNL1        0.0784
     21 C         -10.6994  -11.7979   33.4463 C.ar    1  UNL1        0.0231
     22 C         -10.5055  -12.8722   34.3345 C.ar    1  UNL1        0.1002
     23 C         -11.4425  -13.9209   34.3517 C.ar    1  UNL1        0.1463
     24 F         -11.2969  -14.9633   35.2090 F       1  UNL1       -0.2042
     25 C         -12.5391  -13.9008   33.4873 C.ar    1  UNL1        0.0605
     26 C         -12.7131  -12.8433   32.5926 C.ar    1  UNL1        0.1557
     27 F         -13.7737  -12.8572   31.7466 F       1  UNL1       -0.2028
     28 C          -9.3288  -12.9030   35.2803 C.3     1  UNL1        0.4207
     29 F          -8.7895  -14.1737   35.3878 F       1  UNL1       -0.1658
     30 F          -9.7335  -12.4953   36.5388 F       1  UNL1       -0.1658
     31 F          -8.3480  -12.0435   34.8203 F       1  UNL1       -0.1658
     32 N          -7.2655  -15.5367   27.5435 N.pl3   1  UNL1       -0.2816
     33 H          -6.7356  -16.2524   28.0900 H       1  UNL1        0.1551
     34 C          -7.2742  -15.6364   26.1129 C.ar    1  UNL1        0.0889
     35 C          -6.2618  -15.0031   25.3740 C.ar    1  UNL1        0.1543
     36 F          -5.2971  -14.2899   26.0078 F       1  UNL1       -0.2028
     37 C          -6.2515  -15.0848   23.9785 C.ar    1  UNL1        0.0310
     38 C          -7.2411  -15.8099   23.3118 C.ar    1  UNL1        0.0033
     39 C          -8.2378  -16.4649   24.0387 C.ar    1  UNL1        0.0128
     40 C          -8.2580  -16.3893   25.4368 C.ar    1  UNL1        0.0733
     41 CL         -9.4774  -17.3088   26.3107 Cl      1  UNL1       -0.0809
@<TRIPOS>BOND
     1     1     2    1
     2     2     3    1
     3     2     4    1
     4     4     5    1
     5     5     6   ar
     6     6     7   ar
     7     7    16    1
     8    16    17    2
     9    16    18   am
    10    18    20    1
    11    20    21   ar
    12    21    22   ar
    13    22    28    1
    14    28    29    1
    15    28    30    1
    16    28    31    1
    17    22    23   ar
    18    23    24    1
    19    23    25   ar
    20    25    26   ar
    21    26    27    1
    22     7     8   ar
    23     8     9   ar
    24     9    10   ar
    25    10    11   ar
    26    11    32    1
    27    32    34    1
    28    34    35   ar
    29    35    36    1
    30    35    37   ar
    31    37    38   ar
    32    38    39   ar
    33    39    40   ar
    34    40    41    1
    35    11    12   ar
    36    12    13   ar
    37     6    14    1
    38    14     2    1
    39    13     5   ar
    40    26    20   ar
    41    13     9   ar
    42    40    34   ar
    43    18    19    1
    44    32    33    1
    45    12    15    1
