@<TRIPOS>MOLECULE
*****
 43 47 0 0 0
SMALL
GASTEIGER

@<TRIPOS>ATOM
      1 C         -27.5050   48.1997   -5.9206 C.3     1  UNL1        0.1562
      2 C         -27.7929   48.4010   -4.4281 C.3     1  UNL1        0.0622
      3 C         -29.3302   48.5668   -4.2733 C.3     1  UNL1        0.1294
      4 O         -29.6092   49.8234   -3.6945 O.3     1  UNL1       -0.3808
      5 C         -29.9010   48.5635   -5.7052 C.3     1  UNL1        0.1264
      6 N         -28.7902   48.2798   -6.5975 N.am    1  UNL1       -0.2544
      7 C         -28.9609   47.9734   -7.9942 C.2     1  UNL1        0.3081
      8 O         -27.9722   47.5753   -8.6688 O.2     1  UNL1       -0.2522
      9 N         -30.2371   48.1536   -8.6313 N.am    1  UNL1       -0.2681
     10 H         -29.1307   49.8721   -2.8248 H       1  UNL1        0.2107
     11 H         -30.9173   48.8157   -8.1958 H       1  UNL1        0.1564
     12 C         -29.9535   47.4252   -3.4488 C.ar    1  UNL1        0.0310
     13 C         -30.7041   46.4023   -4.0719 C.ar    1  UNL1        0.0026
     14 C         -31.2522   45.3579   -3.3223 C.ar    1  UNL1        0.0295
     15 C         -31.0511   45.3024   -1.9438 C.ar    1  UNL1        0.1424
     16 F         -31.5823   44.2858   -1.2208 F       1  UNL1       -0.2041
     17 C         -30.2918   46.2865   -1.3115 C.ar    1  UNL1        0.0590
     18 C         -29.7387   47.3360   -2.0515 C.ar    1  UNL1        0.1406
     19 F         -28.9784   48.2514   -1.4003 F       1  UNL1       -0.2044
     20 C         -30.5860   47.5765   -9.9013 C.ar    1  UNL1        0.0516
     21 C         -30.3901   46.2023  -10.1108 C.ar    1  UNL1        0.0156
     22 C         -30.7011   45.6222  -11.3444 C.ar    1  UNL1        0.0127
     23 C         -31.1970   46.4126  -12.3856 C.ar    1  UNL1        0.0578
     24 CL        -31.5838   45.6843  -13.9339 Cl      1  UNL1       -0.0822
     25 C         -31.3744   47.7863  -12.1942 C.ar    1  UNL1        0.0127
     26 C         -31.0651   48.3690  -10.9611 C.ar    1  UNL1        0.0156
     27 O         -26.5309   50.3827   -5.9014 O.2     1  UNL1       -0.2730
     28 C         -26.5626   49.2494   -6.4528 C.2     1  UNL1        0.2454
     29 N         -25.6845   48.9456   -7.5502 N.am    1  UNL1       -0.2680
     30 H         -25.5340   47.9415   -7.7959 H       1  UNL1        0.1563
     31 C         -24.9069   49.9217   -8.2597 C.ar    1  UNL1        0.1346
     32 C         -25.2554   50.3436   -9.5531 C.ar    1  UNL1        0.0406
     33 C         -24.4510   51.2738  -10.2130 C.ar    1  UNL1        0.0736
     34 C         -23.2938   51.7685   -9.5949 C.ar    1  UNL1        0.2466
     35 C         -22.9712   51.3085   -8.3099 C.ar    1  UNL1        0.1691
     36 N         -23.7701   50.4028   -7.6862 N.ar    1  UNL1       -0.2228
     37 N         -22.4565   52.7356  -10.2606 N.am    1  UNL1       -0.0841
     38 C         -22.7941   54.0605  -10.1898 C.2     1  UNL1        0.2905
     39 C         -22.0170   55.0294  -10.8275 C.2     1  UNL1        0.0758
     40 C         -20.8860   54.6395  -11.5400 C.2     1  UNL1        0.0161
     41 C         -20.5412   53.2913  -11.6048 C.2     1  UNL1        0.1156
     42 C         -21.3366   52.3424  -10.9533 C.2     1  UNL1        0.4230
     43 O         -21.0002   51.1272  -10.9997 O.2     1  UNL1       -0.2135
@<TRIPOS>BOND
     1    27    28    2
     2    28    29   am
     3    29    31    1
     4    31    32   ar
     5    32    33   ar
     6    33    34   ar
     7    34    37    1
     8    37    38    1
     9    38    39    2
    10    39    40    1
    11    40    41    2
    12    41    42    1
    13    42    43    2
    14    34    35   ar
    15    35    36   ar
    16    28     1    1
    17     1     2    1
    18     2     3    1
    19     3     4    1
    20     3    12    1
    21    12    13   ar
    22    13    14   ar
    23    14    15   ar
    24    15    16    1
    25    15    17   ar
    26    17    18   ar
    27    18    19    1
    28     3     5    1
    29     5     6    1
    30     6     7   am
    31     7     8    2
    32     7     9   am
    33     9    20    1
    34    20    21   ar
    35    21    22   ar
    36    22    23   ar
    37    23    24    1
    38    23    25   ar
    39    25    26   ar
    40    36    31   ar
    41     6     1    1
    42    26    20   ar
    43    42    37    1
    44    18    12   ar
    45    29    30    1
    46     4    10    1
    47     9    11    1
