@<TRIPOS>MOLECULE
*****
 46 51 0 0 0
SMALL
GASTEIGER

@<TRIPOS>ATOM
      1 O          13.9340   83.6957   25.8694 O.2     1  UNL1       -0.2701
      2 C          13.5034   83.1305   24.8267 C.2     1  UNL1        0.2483
      3 N          13.8198   83.6783   23.5369 N.am    1  UNL1       -0.2945
      4 H          13.6731   83.0851   22.6886 H       1  UNL1        0.1501
      5 C          12.7068   81.8889   24.9517 C.ar    1  UNL1        0.0808
      6 C          11.3091   81.9703   25.0601 C.ar    1  UNL1        0.0080
      7 C          10.5365   80.8131   25.1841 C.ar    1  UNL1        0.0148
      8 C          11.1436   79.5454   25.1938 C.ar    1  UNL1        0.0502
      9 C          12.5407   79.4633   25.0629 C.ar    1  UNL1        0.0443
     10 C          13.3170   80.6201   24.9407 C.ar    1  UNL1        0.1457
     11 F          14.6564   80.4896   24.7652 F       1  UNL1       -0.2040
     12 N          10.3455   78.3472   25.3162 N.pl3   1  UNL1       -0.3040
     13 C          10.8326   77.2350   26.1506 C.3     1  UNL1        0.1122
     14 C          10.0903   75.9331   25.8411 C.3     1  UNL1        0.1123
     15 N           8.6435   76.1683   25.8673 N.pl3   1  UNL1       -0.3034
     16 C           8.0716   77.3754   25.2585 C.3     1  UNL1        0.1123
     17 C           9.1328   78.1800   24.4988 C.3     1  UNL1        0.1122
     18 C           7.7722   75.2281   26.5149 C.ar    1  UNL1        0.0586
     19 C           7.7422   75.1644   27.9168 C.ar    1  UNL1        0.0154
     20 C           6.9089   74.2488   28.5647 C.ar    1  UNL1        0.0013
     21 C           6.0967   73.3925   27.8182 C.ar    1  UNL1        0.0009
     22 C           6.1132   73.4527   26.4225 C.ar    1  UNL1        0.0126
     23 C           6.9459   74.3668   25.7650 C.ar    1  UNL1        0.0709
     24 CL          6.8965   74.4439   24.0090 Cl      1  UNL1       -0.0810
     25 C          14.5078   84.9638   23.3884 C.3     1  UNL1        0.1535
     26 C          14.9753   85.1337   21.9656 C.2     1  UNL1        0.2443
     27 O          16.1034   85.6509   21.7395 O.2     1  UNL1       -0.2730
     28 N          14.1813   84.6122   20.8876 N.am    1  UNL1       -0.2825
     29 H          13.3817   83.9843   21.1307 H       1  UNL1        0.1549
     30 C          14.5189   84.7577   19.4989 C.ar    1  UNL1        0.0535
     31 C          15.3238   83.7910   18.8813 C.ar    1  UNL1        0.0353
     32 C          15.6382   83.9175   17.5262 C.ar    1  UNL1        0.1002
     33 N          15.1518   84.9642   16.8081 N.ar    1  UNL1       -0.2422
     34 C          14.3535   85.9070   17.3753 C.ar    1  UNL1        0.1002
     35 C          14.0159   85.8190   18.7283 C.ar    1  UNL1        0.0353
     36 C          13.5724   86.1166   23.7973 C.3     1  UNL1        0.0569
     37 C          13.7328   87.3067   22.8941 C.ar    1  UNL1       -0.0017
     38 C          14.5991   88.3796   23.0848 C.ar    1  UNL1        0.0681
     39 N          14.3931   89.3264   22.1411 N.ar    1  UNL1       -0.3523
     40 C          13.3968   88.8662   21.3646 C.ar    1  UNL1        0.0563
     41 C          12.8103   89.5075   20.2745 C.ar    1  UNL1        0.0170
     42 C          11.7509   88.8536   19.6190 C.ar    1  UNL1        0.0015
     43 C          11.3031   87.5905   20.0662 C.ar    1  UNL1        0.0001
     44 C          11.9116   86.9688   21.1717 C.ar    1  UNL1        0.0012
     45 C          12.9644   87.6382   21.7958 C.ar    1  UNL1        0.0131
     46 H          14.8921   90.2394   22.0526 H       1  UNL1        0.1660
@<TRIPOS>BOND
     1     1     2    2
     2     2     3   am
     3     3    25    1
     4    25    36    1
     5    36    37    1
     6    37    38   ar
     7    38    39   ar
     8    39    40   ar
     9    40    41   ar
    10    41    42   ar
    11    42    43   ar
    12    43    44   ar
    13    44    45   ar
    14    25    26    1
    15    26    27    2
    16    26    28   am
    17    28    30    1
    18    30    31   ar
    19    31    32   ar
    20    32    33   ar
    21    33    34   ar
    22    34    35   ar
    23     2     5    1
    24     5     6   ar
    25     6     7   ar
    26     7     8   ar
    27     8    12    1
    28    12    13    1
    29    13    14    1
    30    14    15    1
    31    15    18    1
    32    18    19   ar
    33    19    20   ar
    34    20    21   ar
    35    21    22   ar
    36    22    23   ar
    37    23    24    1
    38    15    16    1
    39    16    17    1
    40     8     9   ar
    41     9    10   ar
    42    10    11    1
    43    45    37   ar
    44    35    30   ar
    45    10     5   ar
    46    45    40   ar
    47    17    12    1
    48    23    18   ar
    49     3     4    1
    50    39    46    1
    51    28    29    1
@<TRIPOS>MOLECULE
*****
 46 51 0 0 0
SMALL
GASTEIGER

@<TRIPOS>ATOM
      1 O          14.0275   83.6802   25.8575 O.2     1  UNL1       -0.2701
      2 C          13.5463   83.1405   24.8234 C.2     1  UNL1        0.2483
      3 N          13.8209   83.7053   23.5314 N.am    1  UNL1       -0.2945
      4 H          13.6304   83.1296   22.6799 H       1  UNL1        0.1501
      5 C          12.7338   81.9104   24.9593 C.ar    1  UNL1        0.0808
      6 C          11.3370   82.0106   25.0643 C.ar    1  UNL1        0.0080
      7 C          10.5496   80.8646   25.1983 C.ar    1  UNL1        0.0148
      8 C          11.1405   79.5894   25.2217 C.ar    1  UNL1        0.0502
      9 C          12.5367   79.4883   25.0943 C.ar    1  UNL1        0.0443
     10 C          13.3278   80.6340   24.9620 C.ar    1  UNL1        0.1457
     11 F          14.6658   80.4847   24.7903 F       1  UNL1       -0.2040
     12 N          10.3271   78.4027   25.3545 N.pl3   1  UNL1       -0.3040
     13 C          10.8716   77.2264   26.0545 C.3     1  UNL1        0.1122
     14 C          10.0629   75.9644   25.7461 C.3     1  UNL1        0.1123
     15 N           8.6352   76.2277   25.9499 N.pl3   1  UNL1       -0.3034
     16 C           8.0340   77.4851   25.4893 C.3     1  UNL1        0.1123
     17 C           9.0271   78.3170   24.6694 C.3     1  UNL1        0.1122
     18 C           7.8145   75.2641   26.6285 C.ar    1  UNL1        0.0586
     19 C           6.9243   74.4698   25.8887 C.ar    1  UNL1        0.0154
     20 C           6.1100   73.5344   26.5324 C.ar    1  UNL1        0.0013
     21 C           6.1806   73.3823   27.9188 C.ar    1  UNL1        0.0009
     22 C           7.0684   74.1625   28.6639 C.ar    1  UNL1        0.0126
     23 C           7.8877   75.1028   28.0269 C.ar    1  UNL1        0.0709
     24 CL          9.0268   76.0264   28.9971 Cl      1  UNL1       -0.0810
     25 C          14.5248   84.9815   23.3772 C.3     1  UNL1        0.1535
     26 C          14.9431   85.1659   21.9410 C.2     1  UNL1        0.2443
     27 O          16.1028   85.5888   21.6807 O.2     1  UNL1       -0.2730
     28 N          14.0586   84.7613   20.8835 N.am    1  UNL1       -0.2825
     29 H          13.2164   84.1982   21.1413 H       1  UNL1        0.1549
     30 C          14.3470   84.9316   19.4866 C.ar    1  UNL1        0.0535
     31 C          13.8455   86.0526   18.8119 C.ar    1  UNL1        0.0353
     32 C          14.1400   86.2330   17.4584 C.ar    1  UNL1        0.1002
     33 N          14.9224   85.3338   16.8051 N.ar    1  UNL1       -0.2422
     34 C          15.4385   84.2469   17.4378 C.ar    1  UNL1        0.1002
     35 C          15.1673   84.0281   18.7908 C.ar    1  UNL1        0.0353
     36 C          13.6245   86.1430   23.8372 C.3     1  UNL1        0.0569
     37 C          14.4262   87.2540   24.4545 C.ar    1  UNL1       -0.0017
     38 C          15.1699   88.2144   23.7744 C.ar    1  UNL1        0.0681
     39 N          15.8590   88.9836   24.6478 N.ar    1  UNL1       -0.3523
     40 C          15.5665   88.5095   25.8713 C.ar    1  UNL1        0.0563
     41 C          16.0640   88.9603   27.0932 C.ar    1  UNL1        0.0170
     42 C          15.6463   88.2932   28.2595 C.ar    1  UNL1        0.0015
     43 C          14.7555   87.1996   28.1786 C.ar    1  UNL1        0.0001
     44 C          14.2727   86.7642   26.9311 C.ar    1  UNL1        0.0012
     45 C          14.6986   87.4504   25.7938 C.ar    1  UNL1        0.0131
     46 H          16.5055   89.7694   24.4134 H       1  UNL1        0.1660
@<TRIPOS>BOND
     1     1     2    2
     2     2     3   am
     3     3    25    1
     4    25    36    1
     5    36    37    1
     6    37    38   ar
     7    38    39   ar
     8    39    40   ar
     9    40    41   ar
    10    41    42   ar
    11    42    43   ar
    12    43    44   ar
    13    44    45   ar
    14    25    26    1
    15    26    27    2
    16    26    28   am
    17    28    30    1
    18    30    31   ar
    19    31    32   ar
    20    32    33   ar
    21    33    34   ar
    22    34    35   ar
    23     2     5    1
    24     5     6   ar
    25     6     7   ar
    26     7     8   ar
    27     8    12    1
    28    12    13    1
    29    13    14    1
    30    14    15    1
    31    15    18    1
    32    18    19   ar
    33    19    20   ar
    34    20    21   ar
    35    21    22   ar
    36    22    23   ar
    37    23    24    1
    38    15    16    1
    39    16    17    1
    40     8     9   ar
    41     9    10   ar
    42    10    11    1
    43    45    37   ar
    44    35    30   ar
    45    10     5   ar
    46    45    40   ar
    47    17    12    1
    48    23    18   ar
    49     3     4    1
    50    39    46    1
    51    28    29    1
@<TRIPOS>MOLECULE
*****
 46 51 0 0 0
SMALL
GASTEIGER

@<TRIPOS>ATOM
      1 O           6.3922   73.1275   24.4617 O.2     1  UNL1       -0.2701
      2 C           6.5423   74.3632   24.2558 C.2     1  UNL1        0.2483
      3 N           6.2517   74.9101   22.9596 N.am    1  UNL1       -0.2945
      4 H           6.1431   75.9454   22.8632 H       1  UNL1        0.1501
      5 C           6.9830   75.2350   25.3683 C.ar    1  UNL1        0.0808
      6 C           6.0272   75.7883   26.2356 C.ar    1  UNL1        0.0080
      7 C           6.4182   76.6177   27.2893 C.ar    1  UNL1        0.0148
      8 C           7.7767   76.9067   27.5060 C.ar    1  UNL1        0.0502
      9 C           8.7347   76.3347   26.6512 C.ar    1  UNL1        0.0443
     10 C           8.3461   75.5056   25.5941 C.ar    1  UNL1        0.1457
     11 F           9.3091   74.9350   24.8266 F       1  UNL1       -0.2040
     12 N           8.1832   77.7598   28.5990 N.pl3   1  UNL1       -0.3040
     13 C           9.5016   78.4157   28.5535 C.3     1  UNL1        0.1122
     14 C           9.9237   78.9254   29.9333 C.3     1  UNL1        0.1123
     15 N           8.8370   79.7108   30.5261 N.pl3   1  UNL1       -0.3034
     16 C           7.4451   79.2557   30.4253 C.3     1  UNL1        0.1123
     17 C           7.3540   77.8538   29.8115 C.3     1  UNL1        0.1122
     18 C           9.1239   80.9512   31.1907 C.ar    1  UNL1        0.0586
     19 C           8.6396   81.1682   32.4903 C.ar    1  UNL1        0.0154
     20 C           8.8992   82.3728   33.1491 C.ar    1  UNL1        0.0013
     21 C           9.6473   83.3683   32.5170 C.ar    1  UNL1        0.0009
     22 C          10.1405   83.1598   31.2265 C.ar    1  UNL1        0.0126
     23 C           9.8843   81.9559   30.5587 C.ar    1  UNL1        0.0709
     24 CL         10.5679   81.7158   28.9566 Cl      1  UNL1       -0.0810
     25 C           5.9244   74.0567   21.8139 C.3     1  UNL1        0.1535
     26 C           5.4826   74.9072   20.6508 C.2     1  UNL1        0.2443
     27 O           5.1091   74.3522   19.5813 O.2     1  UNL1       -0.2730
     28 N           5.3914   76.3329   20.8045 N.am    1  UNL1       -0.2825
     29 H           5.4766   76.7254   21.7696 H       1  UNL1        0.1549
     30 C           5.0204   77.2320   19.7474 C.ar    1  UNL1        0.0535
     31 C           3.7609   77.1054   19.1464 C.ar    1  UNL1        0.0353
     32 C           3.3877   77.9900   18.1319 C.ar    1  UNL1        0.1002
     33 N           4.2363   78.9779   17.7422 N.ar    1  UNL1       -0.2422
     34 C           5.4566   79.1370   18.3197 C.ar    1  UNL1        0.1002
     35 C           5.8697   78.2729   19.3369 C.ar    1  UNL1        0.0353
     36 C           7.1412   73.1949   21.4294 C.3     1  UNL1        0.0569
     37 C           8.4311   73.9415   21.6210 C.ar    1  UNL1       -0.0017
     38 C           8.6892   75.2573   21.2465 C.ar    1  UNL1        0.0681
     39 N           9.9892   75.5629   21.4609 N.ar    1  UNL1       -0.3523
     40 C          10.5559   74.4487   21.9555 C.ar    1  UNL1        0.0563
     41 C          11.8934   74.2639   22.3029 C.ar    1  UNL1        0.0170
     42 C          12.2812   72.9961   22.7740 C.ar    1  UNL1        0.0015
     43 C          11.3355   71.9520   22.8807 C.ar    1  UNL1        0.0001
     44 C           9.9931   72.1664   22.5191 C.ar    1  UNL1        0.0012
     45 C           9.6375   73.4359   22.0631 C.ar    1  UNL1        0.0131
     46 H          10.4587   76.4734   21.2585 H       1  UNL1        0.1660
@<TRIPOS>BOND
     1     1     2    2
     2     2     3   am
     3     3    25    1
     4    25    36    1
     5    36    37    1
     6    37    38   ar
     7    38    39   ar
     8    39    40   ar
     9    40    41   ar
    10    41    42   ar
    11    42    43   ar
    12    43    44   ar
    13    44    45   ar
    14    25    26    1
    15    26    27    2
    16    26    28   am
    17    28    30    1
    18    30    31   ar
    19    31    32   ar
    20    32    33   ar
    21    33    34   ar
    22    34    35   ar
    23     2     5    1
    24     5     6   ar
    25     6     7   ar
    26     7     8   ar
    27     8    12    1
    28    12    13    1
    29    13    14    1
    30    14    15    1
    31    15    18    1
    32    18    19   ar
    33    19    20   ar
    34    20    21   ar
    35    21    22   ar
    36    22    23   ar
    37    23    24    1
    38    15    16    1
    39    16    17    1
    40     8     9   ar
    41     9    10   ar
    42    10    11    1
    43    45    37   ar
    44    35    30   ar
    45    10     5   ar
    46    45    40   ar
    47    17    12    1
    48    23    18   ar
    49     3     4    1
    50    39    46    1
    51    28    29    1
@<TRIPOS>MOLECULE
*****
 46 51 0 0 0
SMALL
GASTEIGER

@<TRIPOS>ATOM
      1 O           6.2852   72.7567   24.7210 O.2     1  UNL1       -0.2701
      2 C           6.9749   73.7863   24.4838 C.2     1  UNL1        0.2483
      3 N           7.4386   74.0411   23.1482 N.am    1  UNL1       -0.2945
      4 H           7.7912   74.9964   22.9118 H       1  UNL1        0.1501
      5 C           7.2642   74.7340   25.5837 C.ar    1  UNL1        0.0808
      6 C           7.9919   75.9048   25.3163 C.ar    1  UNL1        0.0080
      7 C           8.2815   76.8116   26.3386 C.ar    1  UNL1        0.0148
      8 C           7.8422   76.5729   27.6522 C.ar    1  UNL1        0.0502
      9 C           7.0947   75.4119   27.9151 C.ar    1  UNL1        0.0443
     10 C           6.8049   74.5012   26.8941 C.ar    1  UNL1        0.1457
     11 F           6.0367   73.4206   27.1845 F       1  UNL1       -0.2040
     12 N           8.1359   77.5127   28.7096 N.pl3   1  UNL1       -0.3040
     13 C           9.5281   77.9406   28.9317 C.3     1  UNL1        0.1122
     14 C           9.7046   78.5879   30.3070 C.3     1  UNL1        0.1123
     15 N           8.6784   79.6154   30.5075 N.pl3   1  UNL1       -0.3034
     16 C           7.2883   79.3719   30.1035 C.3     1  UNL1        0.1123
     17 C           7.0795   77.9227   29.6491 C.3     1  UNL1        0.1122
     18 C           9.0314   80.8846   31.0794 C.ar    1  UNL1        0.0586
     19 C           8.5824   81.2117   32.3685 C.ar    1  UNL1        0.0154
     20 C           8.9067   82.4461   32.9375 C.ar    1  UNL1        0.0013
     21 C           9.6845   83.3616   32.2254 C.ar    1  UNL1        0.0009
     22 C          10.1428   83.0432   30.9445 C.ar    1  UNL1        0.0126
     23 C           9.8219   81.8087   30.3665 C.ar    1  UNL1        0.0709
     24 CL         10.4630   81.4289   28.7738 Cl      1  UNL1       -0.0810
     25 C           7.2640   73.0662   22.0679 C.3     1  UNL1        0.1535
     26 C           6.4023   73.6549   20.9805 C.2     1  UNL1        0.2443
     27 O           6.8521   73.7327   19.8045 O.2     1  UNL1       -0.2730
     28 N           5.0442   74.0246   21.2692 N.am    1  UNL1       -0.2825
     29 H           4.6409   73.7220   22.1849 H       1  UNL1        0.1549
     30 C           4.1568   74.6291   20.3149 C.ar    1  UNL1        0.0535
     31 C           2.7722   74.5466   20.5141 C.ar    1  UNL1        0.0353
     32 C           1.9057   75.1500   19.5996 C.ar    1  UNL1        0.1002
     33 N           2.4049   75.8270   18.5318 N.ar    1  UNL1       -0.2422
     34 C           3.7434   75.9399   18.3227 C.ar    1  UNL1        0.1002
     35 C           4.6448   75.3500   19.2124 C.ar    1  UNL1        0.0353
     36 C           8.6349   72.6422   21.5091 C.3     1  UNL1        0.0569
     37 C           9.7641   73.2372   22.3021 C.ar    1  UNL1       -0.0017
     38 C          10.5714   72.5714   23.2201 C.ar    1  UNL1        0.0681
     39 N          11.4052   73.4416   23.8341 N.ar    1  UNL1       -0.3523
     40 C          11.1227   74.6515   23.3208 C.ar    1  UNL1        0.0563
     41 C          11.7019   75.8718   23.6660 C.ar    1  UNL1        0.0170
     42 C          11.2292   77.0297   23.0214 C.ar    1  UNL1        0.0015
     43 C          10.1962   76.9434   22.0615 C.ar    1  UNL1        0.0001
     44 C           9.6277   75.6986   21.7359 C.ar    1  UNL1        0.0012
     45 C          10.1228   74.5680   22.3859 C.ar    1  UNL1        0.0131
     46 H          12.1071   73.2181   24.5742 H       1  UNL1        0.1660
@<TRIPOS>BOND
     1     1     2    2
     2     2     3   am
     3     3    25    1
     4    25    36    1
     5    36    37    1
     6    37    38   ar
     7    38    39   ar
     8    39    40   ar
     9    40    41   ar
    10    41    42   ar
    11    42    43   ar
    12    43    44   ar
    13    44    45   ar
    14    25    26    1
    15    26    27    2
    16    26    28   am
    17    28    30    1
    18    30    31   ar
    19    31    32   ar
    20    32    33   ar
    21    33    34   ar
    22    34    35   ar
    23     2     5    1
    24     5     6   ar
    25     6     7   ar
    26     7     8   ar
    27     8    12    1
    28    12    13    1
    29    13    14    1
    30    14    15    1
    31    15    18    1
    32    18    19   ar
    33    19    20   ar
    34    20    21   ar
    35    21    22   ar
    36    22    23   ar
    37    23    24    1
    38    15    16    1
    39    16    17    1
    40     8     9   ar
    41     9    10   ar
    42    10    11    1
    43    45    37   ar
    44    35    30   ar
    45    10     5   ar
    46    45    40   ar
    47    17    12    1
    48    23    18   ar
    49     3     4    1
    50    39    46    1
    51    28    29    1
@<TRIPOS>MOLECULE
*****
 46 51 0 0 0
SMALL
GASTEIGER

@<TRIPOS>ATOM
      1 O           9.7367   76.1151   26.3906 O.2     1  UNL1       -0.2701
      2 C           8.5661   76.5756   26.4892 C.2     1  UNL1        0.2483
      3 N           8.2268   77.4288   27.5941 N.am    1  UNL1       -0.2945
      4 H           7.3488   77.9938   27.5422 H       1  UNL1        0.1501
      5 C           7.5706   76.2551   25.4414 C.ar    1  UNL1        0.0808
      6 C           8.0004   75.7109   24.2203 C.ar    1  UNL1        0.0080
      7 C           7.0805   75.4049   23.2147 C.ar    1  UNL1        0.0148
      8 C           5.7065   75.6281   23.4100 C.ar    1  UNL1        0.0502
      9 C           5.2745   76.1520   24.6407 C.ar    1  UNL1        0.0443
     10 C           6.1933   76.4613   25.6486 C.ar    1  UNL1        0.1457
     11 F           5.7255   76.9167   26.8385 F       1  UNL1       -0.2040
     12 N           4.7532   75.3068   22.3730 N.pl3   1  UNL1       -0.3040
     13 C           4.7870   73.9740   21.7462 C.3     1  UNL1        0.1122
     14 C           4.0102   73.9528   20.4279 C.3     1  UNL1        0.1123
     15 N           2.6792   74.5341   20.6267 N.pl3   1  UNL1       -0.3034
     16 C           2.5066   75.7466   21.4360 C.3     1  UNL1        0.1123
     17 C           3.8564   76.3478   21.8447 C.3     1  UNL1        0.1122
     18 C           1.5244   73.9044   20.0501 C.ar    1  UNL1        0.0586
     19 C           1.1102   72.6502   20.5256 C.ar    1  UNL1        0.0154
     20 C          -0.0045   72.0170   19.9699 C.ar    1  UNL1        0.0013
     21 C          -0.7163   72.6324   18.9380 C.ar    1  UNL1        0.0009
     22 C          -0.3171   73.8840   18.4623 C.ar    1  UNL1        0.0126
     23 C           0.7993   74.5254   19.0130 C.ar    1  UNL1        0.0709
     24 CL          1.2350   76.1221   18.4195 Cl      1  UNL1       -0.0810
     25 C           9.1563   77.6695   28.7014 C.3     1  UNL1        0.1535
     26 C           8.9466   79.0557   29.2546 C.2     1  UNL1        0.2443
     27 O           8.0842   79.8111   28.7284 O.2     1  UNL1       -0.2730
     28 N           9.6532   79.4657   30.4366 N.am    1  UNL1       -0.2825
     29 H          10.1695   78.7330   30.9745 H       1  UNL1        0.1549
     30 C           9.5532   80.7756   31.0176 C.ar    1  UNL1        0.0535
     31 C           9.0065   80.9200   32.2998 C.ar    1  UNL1        0.0353
     32 C           8.9256   82.1893   32.8772 C.ar    1  UNL1        0.1002
     33 N           9.3899   83.2753   32.2044 N.ar    1  UNL1       -0.2422
     34 C           9.9423   83.1639   30.9673 C.ar    1  UNL1        0.1002
     35 C          10.0411   81.9129   30.3530 C.ar    1  UNL1        0.0353
     36 C           8.9600   76.6077   29.7993 C.3     1  UNL1        0.0569
     37 C           7.5045   76.3812   30.0964 C.ar    1  UNL1       -0.0017
     38 C           6.7392   77.0535   31.0453 C.ar    1  UNL1        0.0681
     39 N           5.5030   76.5108   31.1255 N.ar    1  UNL1       -0.3523
     40 C           5.4855   75.4950   30.2451 C.ar    1  UNL1        0.0563
     41 C           4.4343   74.6150   29.9912 C.ar    1  UNL1        0.0170
     42 C           4.6443   73.5957   29.0444 C.ar    1  UNL1        0.0015
     43 C           5.8878   73.4768   28.3844 C.ar    1  UNL1        0.0001
     44 C           6.9320   74.3771   28.6637 C.ar    1  UNL1        0.0012
     45 C           6.6910   75.3815   29.6011 C.ar    1  UNL1        0.0131
     46 H           4.7301   76.8080   31.7617 H       1  UNL1        0.1660
@<TRIPOS>BOND
     1     1     2    2
     2     2     3   am
     3     3    25    1
     4    25    36    1
     5    36    37    1
     6    37    38   ar
     7    38    39   ar
     8    39    40   ar
     9    40    41   ar
    10    41    42   ar
    11    42    43   ar
    12    43    44   ar
    13    44    45   ar
    14    25    26    1
    15    26    27    2
    16    26    28   am
    17    28    30    1
    18    30    31   ar
    19    31    32   ar
    20    32    33   ar
    21    33    34   ar
    22    34    35   ar
    23     2     5    1
    24     5     6   ar
    25     6     7   ar
    26     7     8   ar
    27     8    12    1
    28    12    13    1
    29    13    14    1
    30    14    15    1
    31    15    18    1
    32    18    19   ar
    33    19    20   ar
    34    20    21   ar
    35    21    22   ar
    36    22    23   ar
    37    23    24    1
    38    15    16    1
    39    16    17    1
    40     8     9   ar
    41     9    10   ar
    42    10    11    1
    43    45    37   ar
    44    35    30   ar
    45    10     5   ar
    46    45    40   ar
    47    17    12    1
    48    23    18   ar
    49     3     4    1
    50    39    46    1
    51    28    29    1
@<TRIPOS>MOLECULE
*****
 46 51 0 0 0
SMALL
GASTEIGER

@<TRIPOS>ATOM
      1 O           9.0612   75.3248   27.0234 O.2     1  UNL1       -0.2701
      2 C           8.8254   76.1781   26.1243 C.2     1  UNL1        0.2483
      3 N           9.5781   77.4011   26.0876 N.am    1  UNL1       -0.2945
      4 H           9.5520   77.9819   25.2188 H       1  UNL1        0.1501
      5 C           7.7976   75.8858   25.0995 C.ar    1  UNL1        0.0808
      6 C           6.6157   76.6435   25.0676 C.ar    1  UNL1        0.0080
      7 C           5.6293   76.3832   24.1134 C.ar    1  UNL1        0.0148
      8 C           5.8058   75.3636   23.1620 C.ar    1  UNL1        0.0502
      9 C           6.9986   74.6203   23.1803 C.ar    1  UNL1        0.0443
     10 C           7.9870   74.8771   24.1358 C.ar    1  UNL1        0.1457
     11 F           9.1434   74.1687   24.0826 F       1  UNL1       -0.2040
     12 N           4.7890   75.0969   22.1707 N.pl3   1  UNL1       -0.3040
     13 C           4.7776   73.7973   21.4770 C.3     1  UNL1        0.1122
     14 C           3.9213   73.8442   20.2095 C.3     1  UNL1        0.1123
     15 N           2.6080   74.4174   20.5187 N.pl3   1  UNL1       -0.3034
     16 C           2.4915   75.5878   21.3969 C.3     1  UNL1        0.1123
     17 C           3.8669   76.1650   21.7516 C.3     1  UNL1        0.1122
     18 C           1.4168   73.8199   19.9833 C.ar    1  UNL1        0.0586
     19 C           0.9995   72.5655   20.4553 C.ar    1  UNL1        0.0154
     20 C          -0.1508   71.9632   19.9389 C.ar    1  UNL1        0.0013
     21 C          -0.8952   72.6103   18.9502 C.ar    1  UNL1        0.0009
     22 C          -0.4929   73.8624   18.4786 C.ar    1  UNL1        0.0126
     23 C           0.6590   74.4728   18.9900 C.ar    1  UNL1        0.0709
     24 CL          1.0994   76.0714   18.4050 Cl      1  UNL1       -0.0810
     25 C          10.5183   77.7648   27.1514 C.3     1  UNL1        0.1535
     26 C          11.9260   77.7667   26.6128 C.2     1  UNL1        0.2443
     27 O          12.8229   77.1154   27.2150 O.2     1  UNL1       -0.2730
     28 N          12.2111   78.4217   25.3661 N.am    1  UNL1       -0.2825
     29 H          11.4014   78.7378   24.7853 H       1  UNL1        0.1549
     30 C          13.5237   78.5139   24.7897 C.ar    1  UNL1        0.0535
     31 C          13.9974   77.4686   23.9857 C.ar    1  UNL1        0.0353
     32 C          15.2651   77.5627   23.4066 C.ar    1  UNL1        0.1002
     33 N          16.0270   78.6699   23.6097 N.ar    1  UNL1       -0.2422
     34 C          15.5866   79.7077   24.3692 C.ar    1  UNL1        0.1002
     35 C          14.3253   79.6536   24.9679 C.ar    1  UNL1        0.0353
     36 C          10.1541   79.1433   27.7330 C.3     1  UNL1        0.0569
     37 C           9.4399   79.0177   29.0492 C.ar    1  UNL1       -0.0017
     38 C          10.0135   79.1112   30.3142 C.ar    1  UNL1        0.0681
     39 N           9.0987   78.8286   31.2695 N.ar    1  UNL1       -0.3523
     40 C           7.9571   78.5457   30.6183 C.ar    1  UNL1        0.0563
     41 C           6.7383   78.1636   31.1771 C.ar    1  UNL1        0.0170
     42 C           5.6735   77.8813   30.3018 C.ar    1  UNL1        0.0015
     43 C           5.8505   77.9805   28.9037 C.ar    1  UNL1        0.0001
     44 C           7.0932   78.3648   28.3680 C.ar    1  UNL1        0.0012
     45 C           8.1272   78.6457   29.2612 C.ar    1  UNL1        0.0131
     46 H           9.2580   78.8106   32.3013 H       1  UNL1        0.1660
@<TRIPOS>BOND
     1     1     2    2
     2     2     3   am
     3     3    25    1
     4    25    36    1
     5    36    37    1
     6    37    38   ar
     7    38    39   ar
     8    39    40   ar
     9    40    41   ar
    10    41    42   ar
    11    42    43   ar
    12    43    44   ar
    13    44    45   ar
    14    25    26    1
    15    26    27    2
    16    26    28   am
    17    28    30    1
    18    30    31   ar
    19    31    32   ar
    20    32    33   ar
    21    33    34   ar
    22    34    35   ar
    23     2     5    1
    24     5     6   ar
    25     6     7   ar
    26     7     8   ar
    27     8    12    1
    28    12    13    1
    29    13    14    1
    30    14    15    1
    31    15    18    1
    32    18    19   ar
    33    19    20   ar
    34    20    21   ar
    35    21    22   ar
    36    22    23   ar
    37    23    24    1
    38    15    16    1
    39    16    17    1
    40     8     9   ar
    41     9    10   ar
    42    10    11    1
    43    45    37   ar
    44    35    30   ar
    45    10     5   ar
    46    45    40   ar
    47    17    12    1
    48    23    18   ar
    49     3     4    1
    50    39    46    1
    51    28    29    1
@<TRIPOS>MOLECULE
*****
 46 51 0 0 0
SMALL
GASTEIGER

@<TRIPOS>ATOM
      1 O          10.2096   74.7286   24.0975 O.2     1  UNL1       -0.2701
      2 C           9.3446   75.6390   24.2199 C.2     1  UNL1        0.2483
      3 N           9.6045   76.7573   25.0833 N.am    1  UNL1       -0.2945
      4 H           9.0069   77.6105   24.9951 H       1  UNL1        0.1501
      5 C           8.0884   75.5546   23.4411 C.ar    1  UNL1        0.0808
      6 C           7.9813   76.2429   22.2217 C.ar    1  UNL1        0.0080
      7 C           6.8045   76.1824   21.4716 C.ar    1  UNL1        0.0148
      8 C           5.7089   75.4244   21.9194 C.ar    1  UNL1        0.0502
      9 C           5.8243   74.7177   23.1290 C.ar    1  UNL1        0.0443
     10 C           7.0005   74.7779   23.8832 C.ar    1  UNL1        0.1457
     11 F           7.0845   74.0383   25.0181 F       1  UNL1       -0.2040
     12 N           4.4930   75.3562   21.1419 N.pl3   1  UNL1       -0.3040
     13 C           4.4085   74.4154   20.0113 C.3     1  UNL1        0.1122
     14 C           3.2478   74.7627   19.0765 C.3     1  UNL1        0.1123
     15 N           2.0189   74.9403   19.8558 N.pl3   1  UNL1       -0.3034
     16 C           2.0399   75.6733   21.1275 C.3     1  UNL1        0.1123
     17 C           3.4065   76.3198   21.3824 C.3     1  UNL1        0.1122
     18 C           0.7834   74.3735   19.3924 C.ar    1  UNL1        0.0586
     19 C          -0.0725   75.1428   18.5887 C.ar    1  UNL1        0.0154
     20 C          -1.2838   74.6124   18.1370 C.ar    1  UNL1        0.0013
     21 C          -1.6480   73.3089   18.4812 C.ar    1  UNL1        0.0009
     22 C          -0.8001   72.5319   19.2745 C.ar    1  UNL1        0.0126
     23 C           0.4153   73.0559   19.7321 C.ar    1  UNL1        0.0709
     24 CL          1.4750   72.0254   20.6845 Cl      1  UNL1       -0.0810
     25 C          10.7856   76.8098   25.9494 C.3     1  UNL1        0.1535
     26 C          11.8160   77.7357   25.3557 C.2     1  UNL1        0.2443
     27 O          11.4791   78.9017   25.0115 O.2     1  UNL1       -0.2730
     28 N          13.1897   77.3209   25.2836 N.am    1  UNL1       -0.2825
     29 H          13.4639   76.4519   25.7960 H       1  UNL1        0.1549
     30 C          14.2375   78.1119   24.7005 C.ar    1  UNL1        0.0535
     31 C          14.9298   77.6225   23.5849 C.ar    1  UNL1        0.0353
     32 C          15.9358   78.3967   23.0021 C.ar    1  UNL1        0.1002
     33 N          16.2292   79.6248   23.5055 N.ar    1  UNL1       -0.2422
     34 C          15.5619   80.1337   24.5750 C.ar    1  UNL1        0.1002
     35 C          14.5497   79.3916   25.1887 C.ar    1  UNL1        0.0353
     36 C          10.3868   77.2712   27.3634 C.3     1  UNL1        0.0569
     37 C          10.1054   76.1045   28.2676 C.ar    1  UNL1       -0.0017
     38 C          10.9441   75.0187   28.5029 C.ar    1  UNL1        0.0681
     39 N          10.3215   74.0998   29.2758 N.ar    1  UNL1       -0.3523
     40 C           9.0939   74.5903   29.5198 C.ar    1  UNL1        0.0563
     41 C           8.0716   73.9844   30.2488 C.ar    1  UNL1        0.0170
     42 C           6.8450   74.6658   30.3526 C.ar    1  UNL1        0.0015
     43 C           6.6681   75.9206   29.7278 C.ar    1  UNL1        0.0001
     44 C           7.7165   76.5062   28.9952 C.ar    1  UNL1        0.0012
     45 C           8.9229   75.8102   28.9170 C.ar    1  UNL1        0.0131
     46 H          10.7106   73.1849   29.5950 H       1  UNL1        0.1660
@<TRIPOS>BOND
     1     1     2    2
     2     2     3   am
     3     3    25    1
     4    25    36    1
     5    36    37    1
     6    37    38   ar
     7    38    39   ar
     8    39    40   ar
     9    40    41   ar
    10    41    42   ar
    11    42    43   ar
    12    43    44   ar
    13    44    45   ar
    14    25    26    1
    15    26    27    2
    16    26    28   am
    17    28    30    1
    18    30    31   ar
    19    31    32   ar
    20    32    33   ar
    21    33    34   ar
    22    34    35   ar
    23     2     5    1
    24     5     6   ar
    25     6     7   ar
    26     7     8   ar
    27     8    12    1
    28    12    13    1
    29    13    14    1
    30    14    15    1
    31    15    18    1
    32    18    19   ar
    33    19    20   ar
    34    20    21   ar
    35    21    22   ar
    36    22    23   ar
    37    23    24    1
    38    15    16    1
    39    16    17    1
    40     8     9   ar
    41     9    10   ar
    42    10    11    1
    43    45    37   ar
    44    35    30   ar
    45    10     5   ar
    46    45    40   ar
    47    17    12    1
    48    23    18   ar
    49     3     4    1
    50    39    46    1
    51    28    29    1
@<TRIPOS>MOLECULE
*****
 46 51 0 0 0
SMALL
GASTEIGER

@<TRIPOS>ATOM
      1 O          10.1767   78.6105   22.5339 O.2     1  UNL1       -0.2701
      2 C           9.1670   78.2791   23.2141 C.2     1  UNL1        0.2483
      3 N           9.2178   78.3541   24.6479 N.am    1  UNL1       -0.2945
      4 H           8.3222   78.3157   25.1857 H       1  UNL1        0.1501
      5 C           7.9327   77.8513   22.5176 C.ar    1  UNL1        0.0808
      6 C           7.1333   76.8432   23.0805 C.ar    1  UNL1        0.0080
      7 C           5.9668   76.4193   22.4395 C.ar    1  UNL1        0.0148
      8 C           5.5673   77.0001   21.2235 C.ar    1  UNL1        0.0502
      9 C           6.3559   78.0245   20.6717 C.ar    1  UNL1        0.0443
     10 C           7.5253   78.4497   21.3101 C.ar    1  UNL1        0.1457
     11 F           8.2269   79.4766   20.7667 F       1  UNL1       -0.2040
     12 N           4.3580   76.5667   20.5621 N.pl3   1  UNL1       -0.3040
     13 C           4.4118   75.4287   19.6281 C.3     1  UNL1        0.1122
     14 C           3.1711   75.3763   18.7339 C.3     1  UNL1        0.1123
     15 N           1.9617   75.4737   19.5567 N.pl3   1  UNL1       -0.3034
     16 C           1.8908   76.4266   20.6710 C.3     1  UNL1        0.1123
     17 C           3.1173   77.3459   20.7048 C.3     1  UNL1        0.1122
     18 C           0.8406   74.6153   19.2944 C.ar    1  UNL1        0.0586
     19 C          -0.2351   75.0955   18.5311 C.ar    1  UNL1        0.0154
     20 C          -1.3394   74.2788   18.2744 C.ar    1  UNL1        0.0013
     21 C          -1.3767   72.9755   18.7746 C.ar    1  UNL1        0.0009
     22 C          -0.3081   72.4850   19.5294 C.ar    1  UNL1        0.0126
     23 C           0.8022   73.2969   19.7920 C.ar    1  UNL1        0.0709
     24 CL          2.1469   72.6218   20.7019 Cl      1  UNL1       -0.0810
     25 C          10.4582   78.6642   25.3643 C.3     1  UNL1        0.1535
     26 C          10.1373   79.2759   26.7038 C.2     1  UNL1        0.2443
     27 O           9.9574   80.5214   26.7915 O.2     1  UNL1       -0.2730
     28 N           9.9366   78.4266   27.8453 N.am    1  UNL1       -0.2825
     29 H           9.8569   77.3976   27.6792 H       1  UNL1        0.1549
     30 C           9.6672   78.9128   29.1699 C.ar    1  UNL1        0.0535
     31 C          10.2032   80.1429   29.5739 C.ar    1  UNL1        0.0353
     32 C           9.9276   80.6294   30.8539 C.ar    1  UNL1        0.1002
     33 N           9.1303   79.9201   31.6959 N.ar    1  UNL1       -0.2422
     34 C           8.5810   78.7331   31.3253 C.ar    1  UNL1        0.1002
     35 C           8.8325   78.2099   30.0544 C.ar    1  UNL1        0.0353
     36 C          11.3055   77.3897   25.5346 C.3     1  UNL1        0.0569
     37 C          12.4225   77.3293   24.5314 C.ar    1  UNL1       -0.0017
     38 C          12.5587   76.4052   23.4992 C.ar    1  UNL1        0.0681
     39 N          13.7428   76.5738   22.8677 N.ar    1  UNL1       -0.3523
     40 C          14.3598   77.5873   23.4997 C.ar    1  UNL1        0.0563
     41 C          15.6245   78.1074   23.2281 C.ar    1  UNL1        0.0170
     42 C          16.0929   79.1556   24.0414 C.ar    1  UNL1        0.0015
     43 C          15.2981   79.6508   25.0992 C.ar    1  UNL1        0.0001
     44 C          14.0270   79.1038   25.3524 C.ar    1  UNL1        0.0012
     45 C          13.5870   78.0712   24.5242 C.ar    1  UNL1        0.0131
     46 H          14.1099   76.0119   22.0677 H       1  UNL1        0.1660
@<TRIPOS>BOND
     1     1     2    2
     2     2     3   am
     3     3    25    1
     4    25    36    1
     5    36    37    1
     6    37    38   ar
     7    38    39   ar
     8    39    40   ar
     9    40    41   ar
    10    41    42   ar
    11    42    43   ar
    12    43    44   ar
    13    44    45   ar
    14    25    26    1
    15    26    27    2
    16    26    28   am
    17    28    30    1
    18    30    31   ar
    19    31    32   ar
    20    32    33   ar
    21    33    34   ar
    22    34    35   ar
    23     2     5    1
    24     5     6   ar
    25     6     7   ar
    26     7     8   ar
    27     8    12    1
    28    12    13    1
    29    13    14    1
    30    14    15    1
    31    15    18    1
    32    18    19   ar
    33    19    20   ar
    34    20    21   ar
    35    21    22   ar
    36    22    23   ar
    37    23    24    1
    38    15    16    1
    39    16    17    1
    40     8     9   ar
    41     9    10   ar
    42    10    11    1
    43    45    37   ar
    44    35    30   ar
    45    10     5   ar
    46    45    40   ar
    47    17    12    1
    48    23    18   ar
    49     3     4    1
    50    39    46    1
    51    28    29    1
@<TRIPOS>MOLECULE
*****
 46 51 0 0 0
SMALL
GASTEIGER

@<TRIPOS>ATOM
      1 O           8.5487   76.1952   26.2832 O.2     1  UNL1       -0.2701
      2 C           8.3058   77.0162   25.3563 C.2     1  UNL1        0.2483
      3 N           9.1053   78.2028   25.2279 N.am    1  UNL1       -0.2945
      4 H           9.0621   78.7442   24.3347 H       1  UNL1        0.1501
      5 C           7.2200   76.7221   24.3938 C.ar    1  UNL1        0.0808
      6 C           7.5206   76.5934   23.0281 C.ar    1  UNL1        0.0080
      7 C           6.5124   76.3211   22.1004 C.ar    1  UNL1        0.0148
      8 C           5.1797   76.1624   22.5182 C.ar    1  UNL1        0.0502
      9 C           4.8828   76.2692   23.8879 C.ar    1  UNL1        0.0443
     10 C           5.8897   76.5438   24.8188 C.ar    1  UNL1        0.1457
     11 F           5.5643   76.5870   26.1358 F       1  UNL1       -0.2040
     12 N           4.1366   75.8750   21.5605 N.pl3   1  UNL1       -0.3040
     13 C           4.1957   74.6281   20.7782 C.3     1  UNL1        0.1122
     14 C           3.2715   74.6846   19.5598 C.3     1  UNL1        0.1123
     15 N           1.9337   75.1205   19.9714 N.pl3   1  UNL1       -0.3034
     16 C           1.7680   76.2157   20.9346 C.3     1  UNL1        0.1123
     17 C           3.1079   76.8848   21.2625 C.3     1  UNL1        0.1122
     18 C           0.7691   74.4590   19.4530 C.ar    1  UNL1        0.0586
     19 C          -0.1124   75.1630   18.6177 C.ar    1  UNL1        0.0154
     20 C          -1.2564   74.5397   18.1123 C.ar    1  UNL1        0.0013
     21 C          -1.5271   73.2080   18.4341 C.ar    1  UNL1        0.0009
     22 C          -0.6526   72.4958   19.2588 C.ar    1  UNL1        0.0126
     23 C           0.4958   73.1130   19.7701 C.ar    1  UNL1        0.0709
     24 CL          1.5953   72.1640   20.7613 Cl      1  UNL1       -0.0810
     25 C          10.1085   78.5736   26.2299 C.3     1  UNL1        0.1535
     26 C          11.3941   78.9651   25.5476 C.2     1  UNL1        0.2443
     27 O          11.5314   80.1389   25.1066 O.2     1  UNL1       -0.2730
     28 N          12.4871   78.0336   25.4984 N.am    1  UNL1       -0.2825
     29 H          12.4171   77.1690   26.0819 H       1  UNL1        0.1549
     30 C          13.7357   78.2956   24.8384 C.ar    1  UNL1        0.0535
     31 C          14.4715   79.4366   25.1852 C.ar    1  UNL1        0.0353
     32 C          15.6959   79.6851   24.5605 C.ar    1  UNL1        0.1002
     33 N          16.1774   78.8153   23.6335 N.ar    1  UNL1       -0.2422
     34 C          15.4951   77.6907   23.2904 C.ar    1  UNL1        0.1002
     35 C          14.2659   77.4052   23.8900 C.ar    1  UNL1        0.0353
     36 C           9.5826   79.7254   27.1063 C.3     1  UNL1        0.0569
     37 C           9.2232   79.2515   28.4862 C.ar    1  UNL1       -0.0017
     38 C          10.1070   79.0080   29.5339 C.ar    1  UNL1        0.0681
     39 N           9.4511   78.4777   30.5913 N.ar    1  UNL1       -0.3523
     40 C           8.1645   78.3731   30.2158 C.ar    1  UNL1        0.0563
     41 C           7.1072   77.8510   30.9597 C.ar    1  UNL1        0.0170
     42 C           5.8372   77.8069   30.3557 C.ar    1  UNL1        0.0015
     43 C           5.6559   78.2748   29.0351 C.ar    1  UNL1        0.0001
     44 C           6.7423   78.7930   28.3069 C.ar    1  UNL1        0.0012
     45 C           7.9871   78.8309   28.9353 C.ar    1  UNL1        0.0131
     46 H           9.8682   78.1868   31.5034 H       1  UNL1        0.1660
@<TRIPOS>BOND
     1     1     2    2
     2     2     3   am
     3     3    25    1
     4    25    36    1
     5    36    37    1
     6    37    38   ar
     7    38    39   ar
     8    39    40   ar
     9    40    41   ar
    10    41    42   ar
    11    42    43   ar
    12    43    44   ar
    13    44    45   ar
    14    25    26    1
    15    26    27    2
    16    26    28   am
    17    28    30    1
    18    30    31   ar
    19    31    32   ar
    20    32    33   ar
    21    33    34   ar
    22    34    35   ar
    23     2     5    1
    24     5     6   ar
    25     6     7   ar
    26     7     8   ar
    27     8    12    1
    28    12    13    1
    29    13    14    1
    30    14    15    1
    31    15    18    1
    32    18    19   ar
    33    19    20   ar
    34    20    21   ar
    35    21    22   ar
    36    22    23   ar
    37    23    24    1
    38    15    16    1
    39    16    17    1
    40     8     9   ar
    41     9    10   ar
    42    10    11    1
    43    45    37   ar
    44    35    30   ar
    45    10     5   ar
    46    45    40   ar
    47    17    12    1
    48    23    18   ar
    49     3     4    1
    50    39    46    1
    51    28    29    1
