@<TRIPOS>MOLECULE
*****
 39 43 0 0 0
SMALL
GASTEIGER

@<TRIPOS>ATOM
      1 C         -22.0998   -9.7994  -13.3043 C.2     1  UNL1        0.2506
      2 O         -21.8287  -10.1195  -14.4934 O.2     1  UNL1       -0.2699
      3 N         -23.3383   -9.1252  -13.0046 N.am    1  UNL1       -0.2680
      4 C         -24.0779   -9.4595  -11.7830 C.3     1  UNL1        0.1412
      5 C         -23.8829   -8.3668  -10.7342 C.3     1  UNL1        0.2268
      6 O         -23.7415   -7.0809  -11.3351 O.3     1  UNL1       -0.4739
      7 C         -24.6571   -6.5796  -12.2627 C.ar    1  UNL1        0.1362
      8 C         -25.3868   -5.4376  -11.9186 C.ar    1  UNL1        0.0366
      9 C         -26.3381   -4.9127  -12.7929 C.ar    1  UNL1        0.0032
     10 C         -26.5676   -5.5188  -14.0359 C.ar    1  UNL1        0.0029
     11 C         -25.8090   -6.6430  -14.4003 C.ar    1  UNL1        0.0005
     12 C         -24.8555   -7.1916  -13.5248 C.ar    1  UNL1        0.0317
     13 C         -23.9854   -8.3210  -14.0513 C.3     1  UNL1        0.1236
     14 C         -27.5717   -4.9534  -14.9692 C.ar    1  UNL1        0.0355
     15 C         -28.9464   -5.0467  -14.6364 C.ar    1  UNL1        0.0047
     16 C         -29.9285   -4.5142  -15.4804 C.ar    1  UNL1        0.0208
     17 C         -29.5142   -3.8949  -16.6507 C.ar    1  UNL1        0.1015
     18 N         -30.3034   -3.3255  -17.5775 N.ar    1  UNL1       -0.2240
     19 C         -29.4153   -2.8805  -18.4977 C.ar    1  UNL1        0.1751
     20 N         -28.1283   -3.1495  -18.1804 N.ar    1  UNL1       -0.3326
     21 C         -28.1939   -3.7965  -17.0017 C.ar    1  UNL1        0.1100
     22 C         -27.1677   -4.3282  -16.1818 C.ar    1  UNL1        0.1556
     23 H         -27.3083   -2.8828  -18.7607 H       1  UNL1        0.1676
     24 O         -25.7928   -4.3044  -16.4842 O.3     1  UNL1       -0.4699
     25 C         -25.1314   -4.9994  -17.5304 C.3     1  UNL1        0.2525
     26 C         -20.8021  -11.4826  -11.9412 C.ar    1  UNL1        0.0503
     27 C         -19.8287  -11.7333  -10.9523 C.ar    1  UNL1        0.0328
     28 C         -19.2268  -10.6802  -10.2530 C.ar    1  UNL1        0.1069
     29 C         -19.5871   -9.3610  -10.5408 C.ar    1  UNL1        0.0186
     30 C         -20.5406   -9.0931  -11.5219 C.ar    1  UNL1        0.0071
     31 C         -21.1392  -10.1394  -12.2380 C.ar    1  UNL1        0.0667
     32 S         -18.0042  -11.0215   -9.0327 S.O2    1  UNL1        0.0105
     33 C         -17.8959  -12.7788   -8.7841 C.3     1  UNL1        0.1816
     34 O         -16.6688  -10.4965   -9.4806 O.2     1  UNL1       -0.1686
     35 O         -18.3776  -10.3505   -7.7407 O.2     1  UNL1       -0.1686
     36 N         -21.4740  -12.5701  -12.6170 N.pl3   1  UNL1       -0.3325
     37 H         -22.4773  -12.7650  -12.4027 H       1  UNL1        0.1468
     38 C         -21.8023  -13.6654  -14.7888 C.3     1  UNL1        0.0229
     39 C         -20.8522  -13.4360  -13.6188 C.3     1  UNL1        0.0871
@<TRIPOS>BOND
     1    38    39    1
     2    39    36    1
     3    36    26    1
     4    26    27   ar
     5    27    28   ar
     6    28    32    1
     7    32    33    1
     8    32    34    2
     9    32    35    2
    10    28    29   ar
    11    29    30   ar
    12    30    31   ar
    13    31     1    1
    14     1     2    2
    15     1     3   am
    16     3     4    1
    17     4     5    1
    18     5     6    1
    19     6     7    1
    20     7     8   ar
    21     8     9   ar
    22     9    10   ar
    23    10    14    1
    24    14    15   ar
    25    15    16   ar
    26    16    17   ar
    27    17    18   ar
    28    18    19   ar
    29    19    20   ar
    30    20    21   ar
    31    21    22   ar
    32    22    24    1
    33    24    25    1
    34    10    11   ar
    35    11    12   ar
    36    12    13    1
    37    31    26   ar
    38    13     3    1
    39    12     7   ar
    40    22    14   ar
    41    21    17   ar
    42    36    37    1
    43    20    23    1
@<TRIPOS>MOLECULE
*****
 39 43 0 0 0
SMALL
GASTEIGER

@<TRIPOS>ATOM
      1 C         -21.7005   -8.2990   -9.3667 C.2     1  UNL1        0.2506
      2 O         -22.4816   -8.1892   -8.3829 O.2     1  UNL1       -0.2699
      3 N         -22.0084   -7.6341  -10.6082 N.am    1  UNL1       -0.2680
      4 C         -20.9350   -7.0192  -11.3962 C.3     1  UNL1        0.1412
      5 C         -20.5987   -7.8954  -12.6010 C.3     1  UNL1        0.2268
      6 O         -21.7509   -8.5774  -13.0927 O.3     1  UNL1       -0.4739
      7 C         -22.9403   -7.9155  -13.4050 C.ar    1  UNL1        0.1362
      8 C         -23.3718   -7.9262  -14.7350 C.ar    1  UNL1        0.0366
      9 C         -24.5348   -7.2539  -15.1095 C.ar    1  UNL1        0.0032
     10 C         -25.2939   -6.5662  -14.1526 C.ar    1  UNL1        0.0029
     11 C         -24.8840   -6.5860  -12.8096 C.ar    1  UNL1        0.0005
     12 C         -23.7071   -7.2483  -12.4184 C.ar    1  UNL1        0.0317
     13 C         -23.4114   -7.3358  -10.9302 C.3     1  UNL1        0.1236
     14 C         -26.5363   -5.8608  -14.5501 C.ar    1  UNL1        0.0355
     15 C         -26.4341   -4.6025  -15.1948 C.ar    1  UNL1        0.0047
     16 C         -27.5797   -3.9073  -15.6008 C.ar    1  UNL1        0.0208
     17 C         -28.8150   -4.4874  -15.3514 C.ar    1  UNL1        0.1015
     18 N         -30.0173   -3.9773  -15.6682 N.ar    1  UNL1       -0.2240
     19 C         -30.8750   -4.9204  -15.2117 C.ar    1  UNL1        0.1751
     20 N         -30.2585   -5.9764  -14.6336 N.ar    1  UNL1       -0.3326
     21 C         -28.9445   -5.6981  -14.7241 C.ar    1  UNL1        0.1100
     22 C         -27.8130   -6.4320  -14.2892 C.ar    1  UNL1        0.1556
     23 H         -30.7494   -6.7987  -14.2295 H       1  UNL1        0.1676
     24 O         -27.8570   -7.6618  -13.6051 O.3     1  UNL1       -0.4699
     25 C         -28.2140   -7.8775  -12.2482 C.3     1  UNL1        0.2525
     26 C         -19.6215   -8.9550   -8.0929 C.ar    1  UNL1        0.0503
     27 C         -18.4977   -9.7992   -7.9807 C.ar    1  UNL1        0.0328
     28 C         -18.2068  -10.7441   -8.9721 C.ar    1  UNL1        0.1069
     29 C         -19.0429  -10.8608  -10.0859 C.ar    1  UNL1        0.0186
     30 C         -20.1639  -10.0414  -10.2093 C.ar    1  UNL1        0.0071
     31 C         -20.4724   -9.1016   -9.2157 C.ar    1  UNL1        0.0667
     32 S         -16.8044  -11.7948   -8.7997 S.O2    1  UNL1        0.0105
     33 C         -16.3726  -11.9217   -7.0795 C.3     1  UNL1        0.1816
     34 O         -17.1162  -13.1626   -9.3394 O.2     1  UNL1       -0.1686
     35 O         -15.6469  -11.2244   -9.5704 O.2     1  UNL1       -0.1686
     36 N         -19.8864   -7.9330   -7.1049 N.pl3   1  UNL1       -0.3325
     37 H         -20.6629   -7.2535   -7.2658 H       1  UNL1        0.1468
     38 C         -19.8153   -8.5693   -4.7354 C.3     1  UNL1        0.0229
     39 C         -19.1465   -7.7765   -5.8528 C.3     1  UNL1        0.0871
@<TRIPOS>BOND
     1    38    39    1
     2    39    36    1
     3    36    26    1
     4    26    27   ar
     5    27    28   ar
     6    28    32    1
     7    32    33    1
     8    32    34    2
     9    32    35    2
    10    28    29   ar
    11    29    30   ar
    12    30    31   ar
    13    31     1    1
    14     1     2    2
    15     1     3   am
    16     3     4    1
    17     4     5    1
    18     5     6    1
    19     6     7    1
    20     7     8   ar
    21     8     9   ar
    22     9    10   ar
    23    10    14    1
    24    14    15   ar
    25    15    16   ar
    26    16    17   ar
    27    17    18   ar
    28    18    19   ar
    29    19    20   ar
    30    20    21   ar
    31    21    22   ar
    32    22    24    1
    33    24    25    1
    34    10    11   ar
    35    11    12   ar
    36    12    13    1
    37    31    26   ar
    38    13     3    1
    39    12     7   ar
    40    22    14   ar
    41    21    17   ar
    42    36    37    1
    43    20    23    1
@<TRIPOS>MOLECULE
*****
 39 43 0 0 0
SMALL
GASTEIGER

@<TRIPOS>ATOM
      1 C         -21.9179   -8.5497   -9.5583 C.2     1  UNL1        0.2506
      2 O         -22.7230   -8.4895   -8.5897 O.2     1  UNL1       -0.2699
      3 N         -22.1871   -7.8090  -10.7655 N.am    1  UNL1       -0.2680
      4 C         -21.0877   -7.1609  -11.4882 C.3     1  UNL1        0.1412
      5 C         -20.7291   -7.9680  -12.7341 C.3     1  UNL1        0.2268
      6 O         -21.8750   -8.6065  -13.2944 O.3     1  UNL1       -0.4739
      7 C         -23.0492   -7.9137  -13.5966 C.ar    1  UNL1        0.1362
      8 C         -23.4463   -7.8408  -14.9353 C.ar    1  UNL1        0.0366
      9 C         -24.5925   -7.1343  -15.2983 C.ar    1  UNL1        0.0032
     10 C         -25.3693   -6.4958  -14.3216 C.ar    1  UNL1        0.0029
     11 C         -24.9943   -6.5996  -12.9723 C.ar    1  UNL1        0.0005
     12 C         -23.8346   -7.2973  -12.5916 C.ar    1  UNL1        0.0317
     13 C         -23.5783   -7.4762  -11.1043 C.3     1  UNL1        0.1236
     14 C         -26.5939   -5.7539  -14.7077 C.ar    1  UNL1        0.0355
     15 C         -26.4609   -4.4875  -15.3305 C.ar    1  UNL1        0.0047
     16 C         -27.5890   -3.7581  -15.7251 C.ar    1  UNL1        0.0208
     17 C         -28.8382   -4.3125  -15.4865 C.ar    1  UNL1        0.1015
     18 N         -30.0275   -3.7681  -15.7952 N.ar    1  UNL1       -0.2240
     19 C         -30.9081   -4.6980  -15.3555 C.ar    1  UNL1        0.1751
     20 N         -30.3178   -5.7785  -14.7953 N.ar    1  UNL1       -0.3326
     21 C         -28.9974   -5.5303  -14.8802 C.ar    1  UNL1        0.1100
     22 C         -27.8843   -6.2986  -14.4574 C.ar    1  UNL1        0.1556
     23 H         -30.8287   -6.5955  -14.4058 H       1  UNL1        0.1676
     24 O         -27.9585   -7.5386  -13.7947 O.3     1  UNL1       -0.4699
     25 C         -28.3644   -7.7733  -12.4547 C.3     1  UNL1        0.2525
     26 C         -20.4427  -10.4631  -10.2917 C.ar    1  UNL1        0.0503
     27 C         -19.2305  -11.1688  -10.1478 C.ar    1  UNL1        0.0328
     28 C         -18.3120  -10.8235   -9.1491 C.ar    1  UNL1        0.1069
     29 C         -18.5928   -9.7610   -8.2857 C.ar    1  UNL1        0.0186
     30 C         -19.7818   -9.0455   -8.4189 C.ar    1  UNL1        0.0071
     31 C         -20.7021   -9.3738   -9.4244 C.ar    1  UNL1        0.0667
     32 S         -16.7998  -11.7132   -9.0008 S.O2    1  UNL1        0.0105
     33 C         -16.4349  -11.9700   -7.2796 C.3     1  UNL1        0.1816
     34 O         -16.9148  -13.0433   -9.6915 O.2     1  UNL1       -0.1686
     35 O         -15.6877  -10.9313   -9.6419 O.2     1  UNL1       -0.1686
     36 N         -21.4228  -10.8602  -11.2778 N.pl3   1  UNL1       -0.3325
     37 H         -22.3298  -10.3459  -11.3352 H       1  UNL1        0.1468
     38 C         -22.3627  -11.9394  -13.2719 C.3     1  UNL1        0.0229
     39 C         -21.2381  -11.9442  -12.2426 C.3     1  UNL1        0.0871
@<TRIPOS>BOND
     1    38    39    1
     2    39    36    1
     3    36    26    1
     4    26    27   ar
     5    27    28   ar
     6    28    32    1
     7    32    33    1
     8    32    34    2
     9    32    35    2
    10    28    29   ar
    11    29    30   ar
    12    30    31   ar
    13    31     1    1
    14     1     2    2
    15     1     3   am
    16     3     4    1
    17     4     5    1
    18     5     6    1
    19     6     7    1
    20     7     8   ar
    21     8     9   ar
    22     9    10   ar
    23    10    14    1
    24    14    15   ar
    25    15    16   ar
    26    16    17   ar
    27    17    18   ar
    28    18    19   ar
    29    19    20   ar
    30    20    21   ar
    31    21    22   ar
    32    22    24    1
    33    24    25    1
    34    10    11   ar
    35    11    12   ar
    36    12    13    1
    37    31    26   ar
    38    13     3    1
    39    12     7   ar
    40    22    14   ar
    41    21    17   ar
    42    36    37    1
    43    20    23    1
@<TRIPOS>MOLECULE
*****
 39 43 0 0 0
SMALL
GASTEIGER

@<TRIPOS>ATOM
      1 C         -21.6880  -10.3287  -12.8321 C.2     1  UNL1        0.2506
      2 O         -21.5399  -10.7588  -14.0082 O.2     1  UNL1       -0.2699
      3 N         -22.8166   -9.4922  -12.5083 N.am    1  UNL1       -0.2680
      4 C         -23.5020   -9.6521  -11.2214 C.3     1  UNL1        0.1412
      5 C         -23.1094   -8.5220  -10.2722 C.3     1  UNL1        0.2268
      6 O         -22.8636   -7.3060  -10.9762 O.3     1  UNL1       -0.4739
      7 C         -23.7785   -6.7627  -11.8806 C.ar    1  UNL1        0.1362
      8 C         -24.3460   -5.5208  -11.5792 C.ar    1  UNL1        0.0366
      9 C         -25.2897   -4.9463  -12.4301 C.ar    1  UNL1        0.0032
     10 C         -25.6742   -5.6033  -13.6071 C.ar    1  UNL1        0.0029
     11 C         -25.0775   -6.8324  -13.9319 C.ar    1  UNL1        0.0005
     12 C         -24.1342   -7.4306  -13.0781 C.ar    1  UNL1        0.0317
     13 C         -23.4389   -8.6892  -13.5706 C.3     1  UNL1        0.1236
     14 C         -26.6698   -4.9862  -14.5166 C.ar    1  UNL1        0.0355
     15 C         -26.2385   -3.9976  -15.4363 C.ar    1  UNL1        0.0047
     16 C         -27.1407   -3.3984  -16.3237 C.ar    1  UNL1        0.0208
     17 C         -28.4672   -3.8014  -16.2734 C.ar    1  UNL1        0.1015
     18 N         -29.4714   -3.3470  -17.0423 N.ar    1  UNL1       -0.2240
     19 C         -30.5372   -4.0517  -16.5942 C.ar    1  UNL1        0.1751
     20 N         -30.2350   -4.9100  -15.5934 N.ar    1  UNL1       -0.3326
     21 C         -28.9139   -4.7486  -15.3907 C.ar    1  UNL1        0.1100
     22 C         -28.0378   -5.3749  -14.4697 C.ar    1  UNL1        0.1556
     23 H         -30.9193   -5.5373  -15.1259 H       1  UNL1        0.1676
     24 O         -28.4191   -6.3275  -13.5057 O.3     1  UNL1       -0.4699
     25 C         -28.5901   -7.7235  -13.6985 C.3     1  UNL1        0.2525
     26 C         -20.3131  -12.0563  -11.6073 C.ar    1  UNL1        0.0503
     27 C         -19.3168  -12.3410  -10.6510 C.ar    1  UNL1        0.0328
     28 C         -18.7406  -11.3187   -9.8872 C.ar    1  UNL1        0.1069
     29 C         -19.1500   -9.9960  -10.0770 C.ar    1  UNL1        0.0186
     30 C         -20.1269   -9.6941  -11.0246 C.ar    1  UNL1        0.0071
     31 C         -20.7003  -10.7082  -11.8047 C.ar    1  UNL1        0.0667
     32 S         -17.4887  -11.7011   -8.7096 S.O2    1  UNL1        0.0105
     33 C         -17.8110  -10.8175   -7.2007 C.3     1  UNL1        0.1816
     34 O         -17.4771  -13.1783   -8.4314 O.2     1  UNL1       -0.1686
     35 O         -16.1449  -11.3018   -9.2518 O.2     1  UNL1       -0.1686
     36 N         -20.9577  -13.1168  -12.3491 N.pl3   1  UNL1       -0.3325
     37 H         -21.9071  -13.4413  -12.0595 H       1  UNL1        0.1468
     38 C         -21.4227  -13.9172  -14.6224 C.3     1  UNL1        0.0229
     39 C         -20.3812  -13.7825  -13.5172 C.3     1  UNL1        0.0871
@<TRIPOS>BOND
     1    38    39    1
     2    39    36    1
     3    36    26    1
     4    26    27   ar
     5    27    28   ar
     6    28    32    1
     7    32    33    1
     8    32    34    2
     9    32    35    2
    10    28    29   ar
    11    29    30   ar
    12    30    31   ar
    13    31     1    1
    14     1     2    2
    15     1     3   am
    16     3     4    1
    17     4     5    1
    18     5     6    1
    19     6     7    1
    20     7     8   ar
    21     8     9   ar
    22     9    10   ar
    23    10    14    1
    24    14    15   ar
    25    15    16   ar
    26    16    17   ar
    27    17    18   ar
    28    18    19   ar
    29    19    20   ar
    30    20    21   ar
    31    21    22   ar
    32    22    24    1
    33    24    25    1
    34    10    11   ar
    35    11    12   ar
    36    12    13    1
    37    31    26   ar
    38    13     3    1
    39    12     7   ar
    40    22    14   ar
    41    21    17   ar
    42    36    37    1
    43    20    23    1
@<TRIPOS>MOLECULE
*****
 39 43 0 0 0
SMALL
GASTEIGER

@<TRIPOS>ATOM
      1 C         -22.1011   -9.6222  -13.2491 C.2     1  UNL1        0.2506
      2 O         -21.8416   -9.9286  -14.4443 O.2     1  UNL1       -0.2699
      3 N         -23.3678   -9.0178  -12.9194 N.am    1  UNL1       -0.2680
      4 C         -24.0574   -9.3911  -11.6799 C.3     1  UNL1        0.1412
      5 C         -23.8984   -8.2873  -10.6366 C.3     1  UNL1        0.2268
      6 O         -23.8440   -6.9965  -11.2412 O.3     1  UNL1       -0.4739
      7 C         -24.8087   -6.5489  -12.1463 C.ar    1  UNL1        0.1362
      8 C         -25.5926   -5.4490  -11.7848 C.ar    1  UNL1        0.0366
      9 C         -26.5929   -4.9798  -12.6357 C.ar    1  UNL1        0.0032
     10 C         -26.8183   -5.5999  -13.8725 C.ar    1  UNL1        0.0029
     11 C         -26.0071   -6.6805  -14.2550 C.ar    1  UNL1        0.0005
     12 C         -25.0032   -7.1733  -13.4029 C.ar    1  UNL1        0.0317
     13 C         -24.0843   -8.2530  -13.9502 C.3     1  UNL1        0.1236
     14 C         -27.8751   -5.0933  -14.7811 C.ar    1  UNL1        0.0355
     15 C         -29.2313   -5.3755  -14.4805 C.ar    1  UNL1        0.0047
     16 C         -30.2630   -4.9053  -15.3020 C.ar    1  UNL1        0.0208
     17 C         -29.9162   -4.1571  -16.4177 C.ar    1  UNL1        0.1015
     18 N         -30.7602   -3.6210  -17.3157 N.ar    1  UNL1       -0.2240
     19 C         -29.9243   -3.0065  -18.1859 C.ar    1  UNL1        0.1751
     20 N         -28.6171   -3.1409  -17.8655 N.ar    1  UNL1       -0.3326
     21 C         -28.6145   -3.8751  -16.7371 C.ar    1  UNL1        0.1100
     22 C         -27.5389   -4.3374  -15.9388 C.ar    1  UNL1        0.1556
     23 H         -27.8303   -2.7358  -18.4106 H       1  UNL1        0.1676
     24 O         -26.1744   -4.1262  -16.2140 O.3     1  UNL1       -0.4699
     25 C         -25.4228   -4.6618  -17.2927 C.3     1  UNL1        0.2525
     26 C         -20.4650   -8.8671  -11.4805 C.ar    1  UNL1        0.0503
     27 C         -19.5619   -9.2116  -10.4538 C.ar    1  UNL1        0.0328
     28 C         -19.2689  -10.5519  -10.1742 C.ar    1  UNL1        0.1069
     29 C         -19.8831  -11.5654  -10.9151 C.ar    1  UNL1        0.0186
     30 C         -20.7860  -11.2443  -11.9276 C.ar    1  UNL1        0.0071
     31 C         -21.0972   -9.9059  -12.2065 C.ar    1  UNL1        0.0667
     32 S         -18.1477  -10.9539   -8.8774 S.O2    1  UNL1        0.0105
     33 C         -18.5140   -9.9553   -7.4527 C.3     1  UNL1        0.1816
     34 O         -18.2776  -12.4073   -8.5163 O.2     1  UNL1       -0.1686
     35 O         -16.7379  -10.6931   -9.3283 O.2     1  UNL1       -0.1686
     36 N         -20.7178   -7.4836  -11.8162 N.pl3   1  UNL1       -0.3325
     37 H         -20.9475   -7.2292  -12.8026 H       1  UNL1        0.1468
     38 C         -21.3023   -5.1243  -11.4752 C.3     1  UNL1        0.0229
     39 C         -20.6947   -6.3788  -10.8577 C.3     1  UNL1        0.0871
@<TRIPOS>BOND
     1    38    39    1
     2    39    36    1
     3    36    26    1
     4    26    27   ar
     5    27    28   ar
     6    28    32    1
     7    32    33    1
     8    32    34    2
     9    32    35    2
    10    28    29   ar
    11    29    30   ar
    12    30    31   ar
    13    31     1    1
    14     1     2    2
    15     1     3   am
    16     3     4    1
    17     4     5    1
    18     5     6    1
    19     6     7    1
    20     7     8   ar
    21     8     9   ar
    22     9    10   ar
    23    10    14    1
    24    14    15   ar
    25    15    16   ar
    26    16    17   ar
    27    17    18   ar
    28    18    19   ar
    29    19    20   ar
    30    20    21   ar
    31    21    22   ar
    32    22    24    1
    33    24    25    1
    34    10    11   ar
    35    11    12   ar
    36    12    13    1
    37    31    26   ar
    38    13     3    1
    39    12     7   ar
    40    22    14   ar
    41    21    17   ar
    42    36    37    1
    43    20    23    1
@<TRIPOS>MOLECULE
*****
 39 43 0 0 0
SMALL
GASTEIGER

@<TRIPOS>ATOM
      1 C         -22.1225   -8.0404   -9.5933 C.2     1  UNL1        0.2506
      2 O         -22.9417   -7.8650   -8.6509 O.2     1  UNL1       -0.2699
      3 N         -22.3380   -7.3946  -10.8641 N.am    1  UNL1       -0.2680
      4 C         -21.1989   -6.8560  -11.6149 C.3     1  UNL1        0.1412
      5 C         -20.8526   -7.7802  -12.7803 C.3     1  UNL1        0.2268
      6 O         -22.0143   -8.4166  -13.3095 O.3     1  UNL1       -0.4739
      7 C         -23.1523   -7.7046  -13.6944 C.ar    1  UNL1        0.1362
      8 C         -23.5216   -7.7296  -15.0427 C.ar    1  UNL1        0.0366
      9 C         -24.6299   -7.0102  -15.4888 C.ar    1  UNL1        0.0032
     10 C         -25.3963   -6.2596  -14.5864 C.ar    1  UNL1        0.0029
     11 C         -25.0506   -6.2636  -13.2253 C.ar    1  UNL1        0.0005
     12 C         -23.9288   -6.9732  -12.7622 C.ar    1  UNL1        0.0317
     13 C         -23.7072   -7.0352  -11.2599 C.3     1  UNL1        0.1236
     14 C         -26.5809   -5.5038  -15.0601 C.ar    1  UNL1        0.0355
     15 C         -27.7851   -5.5793  -14.3161 C.ar    1  UNL1        0.0047
     16 C         -28.9242   -4.8712  -14.7177 C.ar    1  UNL1        0.0208
     17 C         -28.8373   -4.0959  -15.8650 C.ar    1  UNL1        0.1015
     18 N         -29.8164   -3.3479  -16.4015 N.ar    1  UNL1       -0.2240
     19 C         -29.2208   -2.8079  -17.4911 C.ar    1  UNL1        0.1751
     20 N         -27.9321   -3.1882  -17.6463 N.ar    1  UNL1       -0.3326
     21 C         -27.6897   -4.0097  -16.6076 C.ar    1  UNL1        0.1100
     22 C         -26.5163   -4.7154  -16.2428 C.ar    1  UNL1        0.1556
     23 H         -27.3123   -2.8745  -18.4194 H       1  UNL1        0.1676
     24 O         -25.3093   -4.7132  -16.9677 O.3     1  UNL1       -0.4699
     25 C         -25.0699   -5.2974  -18.2392 C.3     1  UNL1        0.2525
     26 C         -20.6929  -10.0427  -10.1607 C.ar    1  UNL1        0.0503
     27 C         -19.5154  -10.7827   -9.9280 C.ar    1  UNL1        0.0328
     28 C         -18.6259  -10.4168   -8.9105 C.ar    1  UNL1        0.1069
     29 C         -18.9008   -9.2995   -8.1173 C.ar    1  UNL1        0.0186
     30 C         -20.0552   -8.5499   -8.3389 C.ar    1  UNL1        0.0071
     31 C         -20.9456   -8.8992   -9.3641 C.ar    1  UNL1        0.0667
     32 S         -17.1561  -11.3509   -8.6508 S.O2    1  UNL1        0.0105
     33 C         -17.4426  -13.0413   -9.1219 C.3     1  UNL1        0.1816
     34 O         -16.0338  -10.7853   -9.4755 O.2     1  UNL1       -0.1686
     35 O         -16.7671  -11.2897   -7.2003 O.2     1  UNL1       -0.1686
     36 N         -21.6463  -10.4574  -11.1655 N.pl3   1  UNL1       -0.3325
     37 H         -22.5193   -9.9013  -11.3043 H       1  UNL1        0.1468
     38 C         -22.6566  -11.7346  -13.0018 C.3     1  UNL1        0.0229
     39 C         -21.4778  -11.6161  -12.0423 C.3     1  UNL1        0.0871
@<TRIPOS>BOND
     1    38    39    1
     2    39    36    1
     3    36    26    1
     4    26    27   ar
     5    27    28   ar
     6    28    32    1
     7    32    33    1
     8    32    34    2
     9    32    35    2
    10    28    29   ar
    11    29    30   ar
    12    30    31   ar
    13    31     1    1
    14     1     2    2
    15     1     3   am
    16     3     4    1
    17     4     5    1
    18     5     6    1
    19     6     7    1
    20     7     8   ar
    21     8     9   ar
    22     9    10   ar
    23    10    14    1
    24    14    15   ar
    25    15    16   ar
    26    16    17   ar
    27    17    18   ar
    28    18    19   ar
    29    19    20   ar
    30    20    21   ar
    31    21    22   ar
    32    22    24    1
    33    24    25    1
    34    10    11   ar
    35    11    12   ar
    36    12    13    1
    37    31    26   ar
    38    13     3    1
    39    12     7   ar
    40    22    14   ar
    41    21    17   ar
    42    36    37    1
    43    20    23    1
@<TRIPOS>MOLECULE
*****
 39 43 0 0 0
SMALL
GASTEIGER

@<TRIPOS>ATOM
      1 C         -26.5071   -8.1866  -11.9401 C.2     1  UNL1        0.2506
      2 O         -27.0143   -8.5494  -10.8442 O.2     1  UNL1       -0.2699
      3 N         -25.2393   -8.7287  -12.3612 N.am    1  UNL1       -0.2680
      4 C         -25.0130   -9.0511  -13.7740 C.3     1  UNL1        0.1412
      5 C         -24.1338   -7.9843  -14.4229 C.3     1  UNL1        0.2268
      6 O         -23.1921   -7.4451  -13.4971 O.3     1  UNL1       -0.4739
      7 C         -22.3412   -8.2491  -12.7359 C.ar    1  UNL1        0.1362
      8 C         -20.9637   -8.1396  -12.9495 C.ar    1  UNL1        0.0366
      9 C         -20.0694   -8.9415  -12.2410 C.ar    1  UNL1        0.0032
     10 C         -20.5408   -9.8623  -11.2952 C.ar    1  UNL1        0.0029
     11 C         -21.9211   -9.9473  -11.0507 C.ar    1  UNL1        0.0005
     12 C         -22.8363   -9.1550  -11.7658 C.ar    1  UNL1        0.0317
     13 C         -24.2950   -9.2112  -11.3432 C.3     1  UNL1        0.1236
     14 C         -19.5882  -10.7068  -10.5346 C.ar    1  UNL1        0.0355
     15 C         -19.4215  -12.0629  -10.9120 C.ar    1  UNL1        0.0047
     16 C         -18.5225  -12.8934  -10.2319 C.ar    1  UNL1        0.0208
     17 C         -17.8029  -12.3483   -9.1785 C.ar    1  UNL1        0.1015
     18 N         -16.8976  -12.9830   -8.4145 N.ar    1  UNL1       -0.2240
     19 C         -16.5025  -12.0182   -7.5505 C.ar    1  UNL1        0.1751
     20 N         -17.1196  -10.8309   -7.7478 N.ar    1  UNL1       -0.3326
     21 C         -17.9485  -11.0439   -8.7870 C.ar    1  UNL1        0.1100
     22 C         -18.8523  -10.1704   -9.4414 C.ar    1  UNL1        0.1556
     23 H         -16.9442   -9.9733   -7.1874 H       1  UNL1        0.1676
     24 O         -19.0912   -8.8305   -9.0809 O.3     1  UNL1       -0.4699
     25 C         -19.7906   -8.3601   -7.9386 C.3     1  UNL1        0.2525
     26 C         -26.8898   -5.8454  -12.8045 C.ar    1  UNL1        0.0503
     27 C         -27.5898   -4.9861  -13.6762 C.ar    1  UNL1        0.0328
     28 C         -28.6303   -5.4689  -14.4790 C.ar    1  UNL1        0.1069
     29 C         -28.9783   -6.8214  -14.4245 C.ar    1  UNL1        0.0186
     30 C         -28.2912   -7.6879  -13.5758 C.ar    1  UNL1        0.0071
     31 C         -27.2384   -7.2179  -12.7780 C.ar    1  UNL1        0.0667
     32 S         -29.4785   -4.3764  -15.5686 S.O2    1  UNL1        0.0105
     33 C         -28.2926   -3.4884  -16.5518 C.3     1  UNL1        0.1816
     34 O         -30.3928   -5.1564  -16.4715 O.2     1  UNL1       -0.1686
     35 O         -30.3023   -3.4047  -14.7710 O.2     1  UNL1       -0.1686
     36 N         -25.8608   -5.3367  -11.9253 N.pl3   1  UNL1       -0.3325
     37 H         -26.0162   -5.3496  -10.8927 H       1  UNL1        0.1468
     38 C         -23.4943   -5.0709  -11.3304 C.3     1  UNL1        0.0229
     39 C         -24.5739   -4.8046  -12.3734 C.3     1  UNL1        0.0871
@<TRIPOS>BOND
     1    38    39    1
     2    39    36    1
     3    36    26    1
     4    26    27   ar
     5    27    28   ar
     6    28    32    1
     7    32    33    1
     8    32    34    2
     9    32    35    2
    10    28    29   ar
    11    29    30   ar
    12    30    31   ar
    13    31     1    1
    14     1     2    2
    15     1     3   am
    16     3     4    1
    17     4     5    1
    18     5     6    1
    19     6     7    1
    20     7     8   ar
    21     8     9   ar
    22     9    10   ar
    23    10    14    1
    24    14    15   ar
    25    15    16   ar
    26    16    17   ar
    27    17    18   ar
    28    18    19   ar
    29    19    20   ar
    30    20    21   ar
    31    21    22   ar
    32    22    24    1
    33    24    25    1
    34    10    11   ar
    35    11    12   ar
    36    12    13    1
    37    31    26   ar
    38    13     3    1
    39    12     7   ar
    40    22    14   ar
    41    21    17   ar
    42    36    37    1
    43    20    23    1
@<TRIPOS>MOLECULE
*****
 39 43 0 0 0
SMALL
GASTEIGER

@<TRIPOS>ATOM
      1 C         -22.0196   -6.4847  -11.1515 C.2     1  UNL1        0.2506
      2 O         -21.2635   -5.4832  -11.0278 O.2     1  UNL1       -0.2699
      3 N         -21.6808   -7.7270  -10.5033 N.am    1  UNL1       -0.2680
      4 C         -22.7344   -8.5500   -9.9000 C.3     1  UNL1        0.1412
      5 C         -23.0400   -9.7508  -10.7926 C.3     1  UNL1        0.2268
      6 O         -21.8755  -10.2042  -11.4804 O.3     1  UNL1       -0.4739
      7 C         -20.6790  -10.4954  -10.8219 C.ar    1  UNL1        0.1362
      8 C         -20.2142  -11.8139  -10.8504 C.ar    1  UNL1        0.0366
      9 C         -19.0425  -12.1682  -10.1824 C.ar    1  UNL1        0.0032
     10 C         -18.3078  -11.2020   -9.4812 C.ar    1  UNL1        0.0029
     11 C         -18.7514   -9.8695   -9.4830 C.ar    1  UNL1        0.0005
     12 C         -19.9374   -9.4990  -10.1408 C.ar    1  UNL1        0.0317
     13 C         -20.2704   -8.0177  -10.2084 C.3     1  UNL1        0.1236
     14 C         -17.0562  -11.5778   -8.7803 C.ar    1  UNL1        0.0355
     15 C         -16.0172  -12.1990   -9.5177 C.ar    1  UNL1        0.0047
     16 C         -14.8127  -12.5579   -8.9007 C.ar    1  UNL1        0.0208
     17 C         -14.6694  -12.2878   -7.5474 C.ar    1  UNL1        0.1015
     18 N         -13.5930  -12.5536   -6.7879 N.ar    1  UNL1       -0.2240
     19 C         -13.9661  -12.1016   -5.5672 C.ar    1  UNL1        0.1751
     20 N         -15.2121  -11.5757   -5.5438 N.ar    1  UNL1       -0.3326
     21 C         -15.6586  -11.6955   -6.8081 C.ar    1  UNL1        0.1100
     22 C         -16.8961  -11.3233   -7.3895 C.ar    1  UNL1        0.1556
     23 H         -15.6689  -11.1755   -4.7003 H       1  UNL1        0.1676
     24 O         -17.9775  -10.7462   -6.6968 O.3     1  UNL1       -0.4699
     25 C         -17.9217   -9.7141   -5.7238 C.3     1  UNL1        0.2525
     26 C         -23.4691   -7.1349  -13.1140 C.ar    1  UNL1        0.0503
     27 C         -24.6960   -7.0042  -13.7966 C.ar    1  UNL1        0.0328
     28 C         -25.6699   -6.0992  -13.3575 C.ar    1  UNL1        0.1069
     29 C         -25.4303   -5.3182  -12.2236 C.ar    1  UNL1        0.0186
     30 C         -24.2272   -5.4405  -11.5301 C.ar    1  UNL1        0.0071
     31 C         -23.2508   -6.3536  -11.9529 C.ar    1  UNL1        0.0667
     32 S         -27.1987   -5.9665  -14.2211 S.O2    1  UNL1        0.0105
     33 C         -28.1673   -7.4289  -13.9303 C.3     1  UNL1        0.1816
     34 O         -27.9576   -4.7605  -13.7425 O.2     1  UNL1       -0.1686
     35 O         -26.9369   -5.8184  -15.6937 O.2     1  UNL1       -0.1686
     36 N         -22.4352   -8.0188  -13.6039 N.pl3   1  UNL1       -0.3325
     37 H         -21.5519   -8.1272  -13.0573 H       1  UNL1        0.1468
     38 C         -21.5357   -8.3101  -15.8690 C.3     1  UNL1        0.0229
     39 C         -22.5320   -8.8114  -14.8296 C.3     1  UNL1        0.0871
@<TRIPOS>BOND
     1    38    39    1
     2    39    36    1
     3    36    26    1
     4    26    27   ar
     5    27    28   ar
     6    28    32    1
     7    32    33    1
     8    32    34    2
     9    32    35    2
    10    28    29   ar
    11    29    30   ar
    12    30    31   ar
    13    31     1    1
    14     1     2    2
    15     1     3   am
    16     3     4    1
    17     4     5    1
    18     5     6    1
    19     6     7    1
    20     7     8   ar
    21     8     9   ar
    22     9    10   ar
    23    10    14    1
    24    14    15   ar
    25    15    16   ar
    26    16    17   ar
    27    17    18   ar
    28    18    19   ar
    29    19    20   ar
    30    20    21   ar
    31    21    22   ar
    32    22    24    1
    33    24    25    1
    34    10    11   ar
    35    11    12   ar
    36    12    13    1
    37    31    26   ar
    38    13     3    1
    39    12     7   ar
    40    22    14   ar
    41    21    17   ar
    42    36    37    1
    43    20    23    1
@<TRIPOS>MOLECULE
*****
 39 43 0 0 0
SMALL
GASTEIGER

@<TRIPOS>ATOM
      1 C         -22.3652   -9.2863  -11.2918 C.2     1  UNL1        0.2506
      2 O         -23.4278   -9.2910  -10.6130 O.2     1  UNL1       -0.2699
      3 N         -22.2318   -8.3915  -12.4142 N.am    1  UNL1       -0.2680
      4 C         -20.9481   -7.7329  -12.6779 C.3     1  UNL1        0.1412
      5 C         -20.2425   -8.4068  -13.8526 C.3     1  UNL1        0.2268
      6 O         -21.1749   -8.9002  -14.8127 O.3     1  UNL1       -0.4739
      7 C         -22.1821   -8.1034  -15.3611 C.ar    1  UNL1        0.1362
      8 C         -22.1457   -7.8465  -16.7350 C.ar    1  UNL1        0.0366
      9 C         -23.1073   -7.0306  -17.3305 C.ar    1  UNL1        0.0032
     10 C         -24.1317   -6.4651  -16.5587 C.ar    1  UNL1        0.0029
     11 C         -24.1932   -6.7525  -15.1855 C.ar    1  UNL1        0.0005
     12 C         -23.2240   -7.5626  -14.5682 C.ar    1  UNL1        0.0317
     13 C         -23.4426   -7.9333  -13.1105 C.3     1  UNL1        0.1236
     14 C         -25.1598   -5.6065  -17.1949 C.ar    1  UNL1        0.0355
     15 C         -25.1750   -5.4866  -18.6072 C.ar    1  UNL1        0.0047
     16 C         -26.1363   -4.6986  -19.2518 C.ar    1  UNL1        0.0208
     17 C         -27.0704   -4.0395  -18.4658 C.ar    1  UNL1        0.1015
     18 N         -28.0648   -3.2465  -18.9000 N.ar    1  UNL1       -0.2240
     19 C         -28.6692   -2.8638  -17.7504 C.ar    1  UNL1        0.1751
     20 N         -28.0951   -3.3811  -16.6403 N.ar    1  UNL1       -0.3326
     21 C         -27.0756   -4.1309  -17.0992 C.ar    1  UNL1        0.1100
     22 C         -26.1168   -4.9101  -16.4051 C.ar    1  UNL1        0.1556
     23 H         -28.4211   -3.2045  -15.6693 H       1  UNL1        0.1676
     24 O         -26.0268   -5.0285  -15.0051 O.3     1  UNL1       -0.4699
     25 C         -27.0416   -5.4640  -14.1130 C.3     1  UNL1        0.2525
     26 C         -21.1384  -11.4852  -11.4784 C.ar    1  UNL1        0.0503
     27 C         -20.0312  -12.2779  -11.1123 C.ar    1  UNL1        0.0328
     28 C         -19.0942  -11.8168  -10.1797 C.ar    1  UNL1        0.1069
     29 C         -19.2502  -10.5516   -9.6070 C.ar    1  UNL1        0.0186
     30 C         -20.3332   -9.7497   -9.9639 C.ar    1  UNL1        0.0071
     31 C         -21.2697  -10.1958  -10.9072 C.ar    1  UNL1        0.0667
     32 S         -17.7136  -12.8222   -9.7511 S.O2    1  UNL1        0.0105
     33 C         -16.3656  -11.7824   -9.2381 C.3     1  UNL1        0.1816
     34 O         -18.0824  -13.7526   -8.6295 O.2     1  UNL1       -0.1686
     35 O         -17.2957  -13.6415  -10.9398 O.2     1  UNL1       -0.1686
     36 N         -22.1434  -11.9856  -12.3895 N.pl3   1  UNL1       -0.3325
     37 H         -23.0901  -12.2318  -12.0236 H       1  UNL1        0.1468
     38 C         -23.1871  -11.7288  -14.5961 C.3     1  UNL1        0.0229
     39 C         -21.9450  -12.1656  -13.8276 C.3     1  UNL1        0.0871
@<TRIPOS>BOND
     1    38    39    1
     2    39    36    1
     3    36    26    1
     4    26    27   ar
     5    27    28   ar
     6    28    32    1
     7    32    33    1
     8    32    34    2
     9    32    35    2
    10    28    29   ar
    11    29    30   ar
    12    30    31   ar
    13    31     1    1
    14     1     2    2
    15     1     3   am
    16     3     4    1
    17     4     5    1
    18     5     6    1
    19     6     7    1
    20     7     8   ar
    21     8     9   ar
    22     9    10   ar
    23    10    14    1
    24    14    15   ar
    25    15    16   ar
    26    16    17   ar
    27    17    18   ar
    28    18    19   ar
    29    19    20   ar
    30    20    21   ar
    31    21    22   ar
    32    22    24    1
    33    24    25    1
    34    10    11   ar
    35    11    12   ar
    36    12    13    1
    37    31    26   ar
    38    13     3    1
    39    12     7   ar
    40    22    14   ar
    41    21    17   ar
    42    36    37    1
    43    20    23    1
