@<TRIPOS>MOLECULE
*****
 50 55 0 0 0
SMALL
GASTEIGER

@<TRIPOS>ATOM
      1 O          57.9493   83.8361   11.6937 O.2     1  UNL1       -0.2701
      2 C          59.0165   83.5147   12.2850 C.2     1  UNL1        0.2483
      3 N          59.2157   82.1566   12.7084 N.am    1  UNL1       -0.2945
      4 H          60.0025   81.9444   13.3624 H       1  UNL1        0.1501
      5 C          60.0330   84.5540   12.5611 C.ar    1  UNL1        0.0808
      6 C          59.6736   85.6978   13.2933 C.ar    1  UNL1        0.0080
      7 C          60.6178   86.6896   13.5703 C.ar    1  UNL1        0.0148
      8 C          61.9378   86.5632   13.1098 C.ar    1  UNL1        0.0502
      9 C          62.2944   85.4305   12.3628 C.ar    1  UNL1        0.0443
     10 C          61.3532   84.4344   12.0850 C.ar    1  UNL1        0.1457
     11 F          61.7261   83.3827   11.3127 F       1  UNL1       -0.2040
     12 N          62.9166   87.5819   13.3931 N.pl3   1  UNL1       -0.3034
     13 C          63.0350   88.7597   12.5283 C.3     1  UNL1        0.1123
     14 C          63.3547   90.0005   13.3633 C.3     1  UNL1        0.1142
     15 N          64.4442   89.7253   14.3133 N.pl3   1  UNL1       -0.2829
     16 C          64.3675   88.5163   15.1485 C.3     1  UNL1        0.1469
     17 I          62.9055   88.7889   16.6958 I       1  UNL1       -0.0512
     18 C          64.0356   87.2899   14.2946 C.3     1  UNL1        0.1216
     19 C          65.4066   90.7475   14.6453 C.ar    1  UNL1        0.1323
     20 C          65.2005   91.6217   15.7252 C.ar    1  UNL1        0.0343
     21 C          66.1582   92.5936   16.0182 C.ar    1  UNL1        0.0083
     22 C          67.3315   92.6830   15.2545 C.ar    1  UNL1        0.0906
     23 C          67.4913   91.8028   14.1732 C.ar    1  UNL1        0.1041
     24 N          66.5437   90.8660   13.9054 N.ar    1  UNL1       -0.2292
     25 C          68.3502   93.7595   15.5296 C.3     1  UNL1        0.4200
     26 F          68.3404   94.1106   16.8685 F       1  UNL1       -0.1658
     27 F          69.6075   93.2923   15.1954 F       1  UNL1       -0.1658
     28 F          68.0767   94.8925   14.7829 F       1  UNL1       -0.1658
     29 C          58.3225   81.0732   12.2818 C.3     1  UNL1        0.1535
     30 C          58.0938   81.1564   10.7974 C.2     1  UNL1        0.2443
     31 O          57.1981   80.4449   10.2649 O.2     1  UNL1       -0.2730
     32 N          58.8335   82.1038   10.0117 N.am    1  UNL1       -0.2825
     33 H          59.3058   82.8896   10.5139 H       1  UNL1        0.1549
     34 C          58.8832   82.0923    8.5748 C.ar    1  UNL1        0.0535
     35 C          57.9002   81.3974    7.8569 C.ar    1  UNL1        0.0353
     36 C          57.9306   81.4023    6.4604 C.ar    1  UNL1        0.1002
     37 N          58.8994   82.0915    5.8017 N.ar    1  UNL1       -0.2422
     38 C          59.8545   82.7908    6.4696 C.ar    1  UNL1        0.1002
     39 C          59.8614   82.8113    7.8667 C.ar    1  UNL1        0.0353
     40 C          58.9089   79.6961   12.6400 C.3     1  UNL1        0.0569
     41 C          60.3976   79.6721   12.4469 C.ar    1  UNL1       -0.0017
     42 C          61.0954   79.0175   11.4360 C.ar    1  UNL1        0.0681
     43 N          62.4205   79.2699   11.5376 N.ar    1  UNL1       -0.3523
     44 C          62.5635   80.0847   12.5975 C.ar    1  UNL1        0.0563
     45 C          63.7478   80.6317   13.0895 C.ar    1  UNL1        0.0170
     46 C          63.6649   81.4793   14.2096 C.ar    1  UNL1        0.0015
     47 C          62.4146   81.7599   14.8042 C.ar    1  UNL1        0.0001
     48 C          61.2355   81.1947   14.2851 C.ar    1  UNL1        0.0012
     49 C          61.3503   80.3558   13.1764 C.ar    1  UNL1        0.0131
     50 H          63.1746   78.9124   10.9101 H       1  UNL1        0.1660
@<TRIPOS>BOND
     1     1     2    2
     2     2     3   am
     3     3    29    1
     4    29    40    1
     5    40    41    1
     6    41    42   ar
     7    42    43   ar
     8    43    44   ar
     9    44    45   ar
    10    45    46   ar
    11    46    47   ar
    12    47    48   ar
    13    48    49   ar
    14    29    30    1
    15    30    31    2
    16    30    32   am
    17    32    34    1
    18    34    35   ar
    19    35    36   ar
    20    36    37   ar
    21    37    38   ar
    22    38    39   ar
    23     2     5    1
    24     5     6   ar
    25     6     7   ar
    26     7     8   ar
    27     8    12    1
    28    12    13    1
    29    13    14    1
    30    14    15    1
    31    15    19    1
    32    19    20   ar
    33    20    21   ar
    34    21    22   ar
    35    22    25    1
    36    25    26    1
    37    25    27    1
    38    25    28    1
    39    22    23   ar
    40    23    24   ar
    41    15    16    1
    42    16    17    1
    43    16    18    1
    44     8     9   ar
    45     9    10   ar
    46    10    11    1
    47    49    41   ar
    48    39    34   ar
    49    10     5   ar
    50    49    44   ar
    51    18    12    1
    52    24    19   ar
    53     3     4    1
    54    43    50    1
    55    32    33    1
@<TRIPOS>MOLECULE
*****
 50 55 0 0 0
SMALL
GASTEIGER

@<TRIPOS>ATOM
      1 O          57.8825   84.7616   11.9948 O.2     1  UNL1       -0.2701
      2 C          58.9235   84.3578   12.5821 C.2     1  UNL1        0.2483
      3 N          59.1089   82.9533   12.8193 N.am    1  UNL1       -0.2945
      4 H          59.8666   82.6494   13.4715 H       1  UNL1        0.1501
      5 C          59.9228   85.3455   13.0464 C.ar    1  UNL1        0.0808
      6 C          61.2918   85.0730   12.8884 C.ar    1  UNL1        0.0080
      7 C          62.2530   85.9930   13.3146 C.ar    1  UNL1        0.0148
      8 C          61.8644   87.1989   13.9190 C.ar    1  UNL1        0.0502
      9 C          60.4982   87.4651   14.0944 C.ar    1  UNL1        0.0443
     10 C          59.5327   86.5480   13.6673 C.ar    1  UNL1        0.1457
     11 F          58.2249   86.8203   13.9062 F       1  UNL1       -0.2040
     12 N          62.8507   88.1524   14.3596 N.pl3   1  UNL1       -0.3034
     13 C          64.1233   87.6967   14.9269 C.3     1  UNL1        0.1123
     14 C          65.2595   88.6240   14.4929 C.3     1  UNL1        0.1142
     15 N          64.8831   90.0345   14.6779 N.pl3   1  UNL1       -0.2829
     16 C          63.5834   90.4943   14.1639 C.3     1  UNL1        0.1469
     17 I          63.6589   90.6547   12.0251 I       1  UNL1       -0.0512
     18 C          62.4637   89.5461   14.6003 C.3     1  UNL1        0.1216
     19 C          65.8670   91.0127   15.0734 C.ar    1  UNL1        0.1323
     20 C          65.5256   92.1035   15.8897 C.ar    1  UNL1        0.0343
     21 C          66.5076   93.0251   16.2557 C.ar    1  UNL1        0.0083
     22 C          67.8333   92.8517   15.8313 C.ar    1  UNL1        0.0906
     23 C          68.1300   91.7588   15.0022 C.ar    1  UNL1        0.1041
     24 N          67.1563   90.8757   14.6568 N.ar    1  UNL1       -0.2292
     25 C          68.8928   93.8661   16.1785 C.3     1  UNL1        0.4200
     26 F          68.3574   94.8906   16.9399 F       1  UNL1       -0.1658
     27 F          69.8972   93.2469   16.8986 F       1  UNL1       -0.1658
     28 F          69.4352   94.4178   15.0306 F       1  UNL1       -0.1658
     29 C          58.2397   81.9426   12.2055 C.3     1  UNL1        0.1535
     30 C          58.3157   82.0480   10.7069 C.2     1  UNL1        0.2443
     31 O          57.5746   81.3174    9.9934 O.2     1  UNL1       -0.2730
     32 N          59.1640   83.0358   10.1013 N.am    1  UNL1       -0.2825
     33 H          59.4942   83.8269   10.6996 H       1  UNL1        0.1549
     34 C          59.5061   83.0550    8.7050 C.ar    1  UNL1        0.0535
     35 C          60.3464   84.0643    8.2153 C.ar    1  UNL1        0.0353
     36 C          60.7005   84.0743    6.8640 C.ar    1  UNL1        0.1002
     37 N          60.2453   83.1002    6.0326 N.ar    1  UNL1       -0.2422
     38 C          59.4453   82.0975    6.4818 C.ar    1  UNL1        0.1002
     39 C          59.0662   82.0506    7.8258 C.ar    1  UNL1        0.0353
     40 C          58.6400   80.5236   12.6467 C.3     1  UNL1        0.0569
     41 C          60.0972   80.2661   12.3931 C.ar    1  UNL1       -0.0017
     42 C          60.6437   79.5516   11.3309 C.ar    1  UNL1        0.0681
     43 N          61.9949   79.5803   11.3887 N.ar    1  UNL1       -0.3523
     44 C          62.3053   80.3135   12.4719 C.ar    1  UNL1        0.0563
     45 C          63.5792   80.6383   12.9363 C.ar    1  UNL1        0.0170
     46 C          63.6743   81.4381   14.0900 C.ar    1  UNL1        0.0015
     47 C          62.5076   81.8921   14.7447 C.ar    1  UNL1        0.0001
     48 C          61.2350   81.5498   14.2524 C.ar    1  UNL1        0.0012
     49 C          61.1732   80.7529   13.1090 C.ar    1  UNL1        0.0131
     50 H          62.6586   79.1326   10.7182 H       1  UNL1        0.1660
@<TRIPOS>BOND
     1     1     2    2
     2     2     3   am
     3     3    29    1
     4    29    40    1
     5    40    41    1
     6    41    42   ar
     7    42    43   ar
     8    43    44   ar
     9    44    45   ar
    10    45    46   ar
    11    46    47   ar
    12    47    48   ar
    13    48    49   ar
    14    29    30    1
    15    30    31    2
    16    30    32   am
    17    32    34    1
    18    34    35   ar
    19    35    36   ar
    20    36    37   ar
    21    37    38   ar
    22    38    39   ar
    23     2     5    1
    24     5     6   ar
    25     6     7   ar
    26     7     8   ar
    27     8    12    1
    28    12    13    1
    29    13    14    1
    30    14    15    1
    31    15    19    1
    32    19    20   ar
    33    20    21   ar
    34    21    22   ar
    35    22    25    1
    36    25    26    1
    37    25    27    1
    38    25    28    1
    39    22    23   ar
    40    23    24   ar
    41    15    16    1
    42    16    17    1
    43    16    18    1
    44     8     9   ar
    45     9    10   ar
    46    10    11    1
    47    49    41   ar
    48    39    34   ar
    49    10     5   ar
    50    49    44   ar
    51    18    12    1
    52    24    19   ar
    53     3     4    1
    54    43    50    1
    55    32    33    1
@<TRIPOS>MOLECULE
*****
 50 55 0 0 0
SMALL
GASTEIGER

@<TRIPOS>ATOM
      1 O          58.6996   82.6630   12.1352 O.2     1  UNL1       -0.2701
      2 C          59.7138   82.9037   11.4245 C.2     1  UNL1        0.2483
      3 N          59.9999   82.0751   10.2866 N.am    1  UNL1       -0.2945
      4 H          60.9347   82.1577    9.8270 H       1  UNL1        0.1501
      5 C          60.6112   84.0197   11.7971 C.ar    1  UNL1        0.0808
      6 C          60.3346   84.7771   12.9475 C.ar    1  UNL1        0.0080
      7 C          61.1706   85.8321   13.3215 C.ar    1  UNL1        0.0148
      8 C          62.2936   86.1590   12.5452 C.ar    1  UNL1        0.0502
      9 C          62.5617   85.4157   11.3860 C.ar    1  UNL1        0.0443
     10 C          61.7287   84.3575   11.0091 C.ar    1  UNL1        0.1457
     11 F          61.9932   83.7006    9.8515 F       1  UNL1       -0.2040
     12 N          63.1605   87.2450   12.9261 N.pl3   1  UNL1       -0.3034
     13 C          63.2244   88.4643   12.1147 C.3     1  UNL1        0.1123
     14 C          63.3842   89.6914   13.0135 C.3     1  UNL1        0.1142
     15 N          64.4367   89.4707   14.0178 N.pl3   1  UNL1       -0.2829
     16 C          64.4187   88.2252   14.8011 C.3     1  UNL1        0.1469
     17 I          62.8509   88.3051   16.2645 I       1  UNL1       -0.0512
     18 C          64.2466   87.0122   13.8833 C.3     1  UNL1        0.1216
     19 C          65.2841   90.5568   14.4464 C.ar    1  UNL1        0.1323
     20 C          64.8816   91.4408   15.4610 C.ar    1  UNL1        0.0343
     21 C          65.7326   92.4756   15.8518 C.ar    1  UNL1        0.0083
     22 C          66.9928   92.6191   15.2525 C.ar    1  UNL1        0.0906
     23 C          67.3501   91.7262   14.2304 C.ar    1  UNL1        0.1041
     24 N          66.5036   90.7277   13.8648 N.ar    1  UNL1       -0.2292
     25 C          67.9006   93.7615   15.6307 C.3     1  UNL1        0.4200
     26 F          69.2177   93.4581   15.3323 F       1  UNL1       -0.1658
     27 F          67.5277   94.8913   14.9268 F       1  UNL1       -0.1658
     28 F          67.8137   94.0257   16.9867 F       1  UNL1       -0.1658
     29 C          59.0342   81.0921    9.7818 C.3     1  UNL1        0.1535
     30 C          58.5388   80.2364   10.9153 C.2     1  UNL1        0.2443
     31 O          57.4377   79.6307   10.8025 O.2     1  UNL1       -0.2730
     32 N          59.3586   80.0454   12.0787 N.am    1  UNL1       -0.2825
     33 H          60.3757   80.2739   12.0006 H       1  UNL1        0.1549
     34 C          58.8871   79.4703   13.3092 C.ar    1  UNL1        0.0535
     35 C          58.9299   78.0799   13.4809 C.ar    1  UNL1        0.0353
     36 C          58.4945   77.5177   14.6833 C.ar    1  UNL1        0.1002
     37 N          58.0474   78.3172   15.6874 N.ar    1  UNL1       -0.2422
     38 C          58.0124   79.6698   15.5582 C.ar    1  UNL1        0.1002
     39 C          58.4375   80.2729   14.3717 C.ar    1  UNL1        0.0353
     40 C          57.8434   81.7847    9.0958 C.3     1  UNL1        0.0569
     41 C          58.1009   83.2521    8.9103 C.ar    1  UNL1       -0.0017
     42 C          57.4114   84.3008    9.5122 C.ar    1  UNL1        0.0681
     43 N          57.9602   85.4874    9.1643 N.ar    1  UNL1       -0.3523
     44 C          58.9944   85.1960    8.3562 C.ar    1  UNL1        0.0563
     45 C          59.8770   86.0930    7.7559 C.ar    1  UNL1        0.0170
     46 C          60.9066   85.5658    6.9549 C.ar    1  UNL1        0.0015
     47 C          61.0311   84.1700    6.7760 C.ar    1  UNL1        0.0001
     48 C          60.1266   83.2884    7.3954 C.ar    1  UNL1        0.0012
     49 C          59.1145   83.8413    8.1805 C.ar    1  UNL1        0.0131
     50 H          57.6480   86.4347    9.4734 H       1  UNL1        0.1660
@<TRIPOS>BOND
     1     1     2    2
     2     2     3   am
     3     3    29    1
     4    29    40    1
     5    40    41    1
     6    41    42   ar
     7    42    43   ar
     8    43    44   ar
     9    44    45   ar
    10    45    46   ar
    11    46    47   ar
    12    47    48   ar
    13    48    49   ar
    14    29    30    1
    15    30    31    2
    16    30    32   am
    17    32    34    1
    18    34    35   ar
    19    35    36   ar
    20    36    37   ar
    21    37    38   ar
    22    38    39   ar
    23     2     5    1
    24     5     6   ar
    25     6     7   ar
    26     7     8   ar
    27     8    12    1
    28    12    13    1
    29    13    14    1
    30    14    15    1
    31    15    19    1
    32    19    20   ar
    33    20    21   ar
    34    21    22   ar
    35    22    25    1
    36    25    26    1
    37    25    27    1
    38    25    28    1
    39    22    23   ar
    40    23    24   ar
    41    15    16    1
    42    16    17    1
    43    16    18    1
    44     8     9   ar
    45     9    10   ar
    46    10    11    1
    47    49    41   ar
    48    39    34   ar
    49    10     5   ar
    50    49    44   ar
    51    18    12    1
    52    24    19   ar
    53     3     4    1
    54    43    50    1
    55    32    33    1
