@<TRIPOS>MOLECULE
*****
 37 41 0 0 0
SMALL
GASTEIGER

@<TRIPOS>ATOM
      1 C         -26.6889   -7.0353  -13.0102 C.2     1  UNL1        0.2491
      2 O         -27.4235   -8.0025  -12.6689 O.2     1  UNL1       -0.2699
      3 N         -25.3936   -6.8814  -12.3981 N.am    1  UNL1       -0.2760
      4 C         -24.2473   -6.3939  -13.1805 C.3     1  UNL1        0.0954
      5 C         -22.9796   -7.1500  -12.7739 C.3     1  UNL1        0.0403
      6 C         -22.6326   -6.9756  -11.2587 C.3     1  UNL1        0.0707
      7 C         -23.9326   -6.7507  -10.4150 C.3     1  UNL1        0.0403
      8 C         -25.1763   -7.3944  -11.0388 C.3     1  UNL1        0.0954
      9 N         -21.7798   -5.7716  -11.0938 N.am    1  UNL1       -0.3019
     10 C         -20.9937   -5.5770   -9.9069 C.2     1  UNL1        0.2650
     11 O         -20.4845   -4.4562   -9.6422 O.2     1  UNL1       -0.2684
     12 C         -20.7864   -6.7284   -9.0406 C.ar    1  UNL1        0.1519
     13 N         -20.1112   -6.7816   -7.8798 N.ar    1  UNL1       -0.1651
     14 N         -20.1316   -8.0518   -7.4841 N.ar    1  UNL1       -0.2534
     15 C         -20.7941   -8.8041   -8.3986 C.ar    1  UNL1        0.0927
     16 C         -21.2382   -7.9641   -9.3938 C.ar    1  UNL1        0.0286
     17 C         -21.8765   -8.2608  -10.7237 C.3     1  UNL1        0.0994
     18 H         -21.8693   -4.9755  -11.7653 H       1  UNL1        0.1497
     19 C         -30.7614   -3.4707  -15.9088 C.ar    1  UNL1        0.2249
     20 C         -29.9219   -2.9898  -16.9185 C.ar    1  UNL1        0.0577
     21 C         -28.5895   -3.4056  -16.9657 C.ar    1  UNL1        0.0063
     22 C         -28.1043   -4.2988  -16.0023 C.ar    1  UNL1        0.0179
     23 C         -26.7758   -4.7428  -16.0237 C.ar    1  UNL1        0.0016
     24 C         -26.3202   -5.6350  -15.0484 C.ar    1  UNL1        0.0046
     25 C         -27.1818   -6.0856  -14.0331 C.ar    1  UNL1        0.0551
     26 C         -28.5193   -5.6535  -14.0238 C.ar    1  UNL1        0.0237
     27 C         -28.9804   -4.7607  -14.9968 C.ar    1  UNL1        0.0845
     28 N         -30.2736   -4.3395  -14.9785 N.ar    1  UNL1       -0.2117
     29 C         -32.9611   -3.3517  -14.7796 C.3     1  UNL1        0.2542
     30 O         -32.0943   -3.0519  -15.8672 O.3     1  UNL1       -0.4561
     31 C         -19.4534   -8.5588   -6.2744 C.3     1  UNL1        0.0867
     32 C         -20.5040   -9.0161   -5.2439 C.3     1  UNL1        0.0244
     33 C         -18.5849   -7.4536   -5.6355 C.3     1  UNL1        0.0244
     34 C         -18.5495   -9.7450   -6.6570 C.3     1  UNL1        0.0244
     35 C         -20.7916   -8.7389  -11.6722 C.2     1  UNL1        0.1564
     36 C         -20.7370  -10.1642  -12.1373 C.3     1  UNL1        0.0726
     37 O         -19.9403   -7.9561  -12.0689 O.2     1  UNL1       -0.2957
@<TRIPOS>BOND
     1    29    30    1
     2    30    19    1
     3    19    20   ar
     4    20    21   ar
     5    21    22   ar
     6    22    23   ar
     7    23    24   ar
     8    24    25   ar
     9    25     1    1
    10     1     2    2
    11     1     3   am
    12     3     4    1
    13     4     5    1
    14     5     6    1
    15     6     7    1
    16     7     8    1
    17     6     9    1
    18     9    10   am
    19    10    11    2
    20    10    12    1
    21    12    13   ar
    22    13    14   ar
    23    14    31    1
    24    31    32    1
    25    31    33    1
    26    31    34    1
    27    14    15   ar
    28    15    16   ar
    29    16    17    1
    30    17    35    1
    31    35    36    1
    32    35    37    2
    33    25    26   ar
    34    26    27   ar
    35    27    28   ar
    36    28    19   ar
    37    27    22   ar
    38     8     3    1
    39    16    12   ar
    40    17     6    1
    41     9    18    1
@<TRIPOS>MOLECULE
*****
 37 41 0 0 0
SMALL
GASTEIGER

@<TRIPOS>ATOM
      1 C         -28.2200   -6.6135  -13.8892 C.2     1  UNL1        0.2491
      2 O         -28.9347   -7.5698  -13.4812 O.2     1  UNL1       -0.2699
      3 N         -26.8530   -6.5131  -13.4447 N.am    1  UNL1       -0.2760
      4 C         -25.8015   -6.0344  -14.3551 C.3     1  UNL1        0.0954
      5 C         -24.5163   -6.8366  -14.1340 C.3     1  UNL1        0.0403
      6 C         -23.9735   -6.7163  -12.6720 C.3     1  UNL1        0.0707
      7 C         -25.1477   -6.4807  -11.6629 C.3     1  UNL1        0.0403
      8 C         -26.4801   -7.0715  -12.1381 C.3     1  UNL1        0.0954
      9 N         -23.0698   -5.5415  -12.5873 N.am    1  UNL1       -0.3019
     10 C         -22.1331   -5.4034  -11.5066 C.2     1  UNL1        0.2650
     11 O         -21.5599   -4.3052  -11.2808 O.2     1  UNL1       -0.2684
     12 C         -21.8527   -6.5848  -10.7037 C.ar    1  UNL1        0.1519
     13 N         -21.0368   -6.6906   -9.6410 N.ar    1  UNL1       -0.1651
     14 N         -21.0458   -7.9708   -9.2785 N.ar    1  UNL1       -0.2534
     15 C         -21.8425   -8.6775  -10.1193 C.ar    1  UNL1        0.0927
     16 C         -22.3838   -7.7968  -11.0275 C.ar    1  UNL1        0.0286
     17 C         -23.1954   -8.0369  -12.2716 C.3     1  UNL1        0.0994
     18 H         -23.2196   -4.7238  -13.2211 H       1  UNL1        0.1497
     19 C         -28.3457   -2.6141  -18.5456 C.ar    1  UNL1        0.2249
     20 C         -29.6825   -2.2196  -18.4332 C.ar    1  UNL1        0.0577
     21 C         -30.4843   -2.7728  -17.4325 C.ar    1  UNL1        0.0063
     22 C         -29.9448   -3.7178  -16.5509 C.ar    1  UNL1        0.0179
     23 C         -30.7179   -4.2875  -15.5308 C.ar    1  UNL1        0.0016
     24 C         -30.1513   -5.2285  -14.6657 C.ar    1  UNL1        0.0046
     25 C         -28.8098   -5.6211  -14.8157 C.ar    1  UNL1        0.0551
     26 C         -28.0306   -5.0350  -15.8282 C.ar    1  UNL1        0.0237
     27 C         -28.5922   -4.0934  -16.6966 C.ar    1  UNL1        0.0845
     28 N         -27.8359   -3.5352  -17.6797 N.ar    1  UNL1       -0.2117
     29 C         -28.0144   -1.8480  -20.8761 C.3     1  UNL1        0.2542
     30 O         -27.5476   -2.0563  -19.5485 O.3     1  UNL1       -0.4561
     31 C         -20.2348   -8.5314   -8.1793 C.3     1  UNL1        0.0867
     32 C         -21.1622   -9.1218   -7.0994 C.3     1  UNL1        0.0244
     33 C         -19.3629   -7.4331   -7.5333 C.3     1  UNL1        0.0244
     34 C         -19.3164   -9.6347   -8.7359 C.3     1  UNL1        0.0244
     35 C         -22.2558   -8.5164  -13.3634 C.2     1  UNL1        0.1564
     36 C         -22.3073   -9.9275  -13.8703 C.3     1  UNL1        0.0726
     37 O         -21.4364   -7.7467  -13.8441 O.2     1  UNL1       -0.2957
@<TRIPOS>BOND
     1    29    30    1
     2    30    19    1
     3    19    20   ar
     4    20    21   ar
     5    21    22   ar
     6    22    23   ar
     7    23    24   ar
     8    24    25   ar
     9    25     1    1
    10     1     2    2
    11     1     3   am
    12     3     4    1
    13     4     5    1
    14     5     6    1
    15     6     7    1
    16     7     8    1
    17     6     9    1
    18     9    10   am
    19    10    11    2
    20    10    12    1
    21    12    13   ar
    22    13    14   ar
    23    14    31    1
    24    31    32    1
    25    31    33    1
    26    31    34    1
    27    14    15   ar
    28    15    16   ar
    29    16    17    1
    30    17    35    1
    31    35    36    1
    32    35    37    2
    33    25    26   ar
    34    26    27   ar
    35    27    28   ar
    36    28    19   ar
    37    27    22   ar
    38     8     3    1
    39    16    12   ar
    40    17     6    1
    41     9    18    1
@<TRIPOS>MOLECULE
*****
 37 41 0 0 0
SMALL
GASTEIGER

@<TRIPOS>ATOM
      1 C         -19.6956   -8.4341  -10.8381 C.2     1  UNL1        0.2491
      2 O         -18.8145   -8.4319  -11.7410 O.2     1  UNL1       -0.2699
      3 N         -21.0416   -8.0354  -11.1633 N.am    1  UNL1       -0.2760
      4 C         -22.1935   -8.7035  -10.5384 C.3     1  UNL1        0.0954
      5 C         -23.3152   -8.8773  -11.5659 C.3     1  UNL1        0.0403
      6 C         -23.8132   -7.5154  -12.1521 C.3     1  UNL1        0.0707
      7 C         -22.6572   -6.4588  -12.1573 C.3     1  UNL1        0.0403
      8 C         -21.2637   -7.0887  -12.2644 C.3     1  UNL1        0.0954
      9 N         -24.8982   -6.9854  -11.2885 N.am    1  UNL1       -0.3019
     10 C         -25.8020   -5.9769  -11.7687 C.2     1  UNL1        0.2650
     11 O         -26.5432   -5.3387  -10.9757 O.2     1  UNL1       -0.2684
     12 C         -25.8475   -5.7425  -13.2048 C.ar    1  UNL1        0.1519
     13 N         -26.5917   -4.8467  -13.8754 N.ar    1  UNL1       -0.1651
     14 N         -26.3527   -5.0439  -15.1694 N.ar    1  UNL1       -0.2534
     15 C         -25.4814   -6.0730  -15.3208 C.ar    1  UNL1        0.0927
     16 C         -25.1324   -6.5183  -14.0665 C.ar    1  UNL1        0.0286
     17 C         -24.3409   -7.7218  -13.6315 C.3     1  UNL1        0.0994
     18 H         -24.9134   -7.2204  -10.2700 H       1  UNL1        0.1497
     19 C         -19.1953   -7.9724   -4.7365 C.ar    1  UNL1        0.2249
     20 C         -18.5292   -9.1789   -4.4995 C.ar    1  UNL1        0.0577
     21 C         -18.2151  -10.0169   -5.5716 C.ar    1  UNL1        0.0063
     22 C         -18.5700   -9.6440   -6.8740 C.ar    1  UNL1        0.0179
     23 C         -18.2641  -10.4564   -7.9736 C.ar    1  UNL1        0.0016
     24 C         -18.6311  -10.0574   -9.2623 C.ar    1  UNL1        0.0046
     25 C         -19.3184   -8.8483   -9.4680 C.ar    1  UNL1        0.0551
     26 C         -19.6083   -8.0258   -8.3657 C.ar    1  UNL1        0.0237
     27 C         -19.2438   -8.4201   -7.0742 C.ar    1  UNL1        0.0845
     28 N         -19.5339   -7.6241   -6.0101 N.ar    1  UNL1       -0.2117
     29 C         -20.0355   -7.6275   -2.4336 C.3     1  UNL1        0.2542
     30 O         -19.5061   -7.1371   -3.6596 O.3     1  UNL1       -0.4561
     31 C         -27.0140   -4.3022  -16.2615 C.3     1  UNL1        0.0867
     32 C         -28.5414   -4.4786  -16.1578 C.3     1  UNL1        0.0244
     33 C         -26.5491   -4.8308  -17.6358 C.3     1  UNL1        0.0244
     34 C         -26.6544   -2.8091  -16.1535 C.3     1  UNL1        0.0244
     35 C         -25.2279   -8.9461  -13.7709 C.2     1  UNL1        0.1564
     36 C         -24.7547  -10.1717  -14.4953 C.3     1  UNL1        0.0726
     37 O         -26.3516   -8.9429  -13.2891 O.2     1  UNL1       -0.2957
@<TRIPOS>BOND
     1    29    30    1
     2    30    19    1
     3    19    20   ar
     4    20    21   ar
     5    21    22   ar
     6    22    23   ar
     7    23    24   ar
     8    24    25   ar
     9    25     1    1
    10     1     2    2
    11     1     3   am
    12     3     4    1
    13     4     5    1
    14     5     6    1
    15     6     7    1
    16     7     8    1
    17     6     9    1
    18     9    10   am
    19    10    11    2
    20    10    12    1
    21    12    13   ar
    22    13    14   ar
    23    14    31    1
    24    31    32    1
    25    31    33    1
    26    31    34    1
    27    14    15   ar
    28    15    16   ar
    29    16    17    1
    30    17    35    1
    31    35    36    1
    32    35    37    2
    33    25    26   ar
    34    26    27   ar
    35    27    28   ar
    36    28    19   ar
    37    27    22   ar
    38     8     3    1
    39    16    12   ar
    40    17     6    1
    41     9    18    1
@<TRIPOS>MOLECULE
*****
 37 41 0 0 0
SMALL
GASTEIGER

@<TRIPOS>ATOM
      1 C         -22.6673  -11.5847  -12.9151 C.2     1  UNL1        0.2491
      2 O         -23.0496  -12.4495  -13.7503 O.2     1  UNL1       -0.2699
      3 N         -23.4204  -10.3653  -12.7657 N.am    1  UNL1       -0.2760
      4 C         -23.5843   -9.7423  -11.4433 C.3     1  UNL1        0.0954
      5 C         -25.0013   -9.1789  -11.3049 C.3     1  UNL1        0.0403
      6 C         -25.3292   -8.0976  -12.3864 C.3     1  UNL1        0.0707
      7 C         -24.5244   -8.3684  -13.7023 C.3     1  UNL1        0.0403
      8 C         -24.1850   -9.8490  -13.9088 C.3     1  UNL1        0.0954
      9 N         -24.9175   -6.7651  -11.8777 N.am    1  UNL1       -0.3019
     10 C         -25.4343   -5.5574  -12.4600 C.2     1  UNL1        0.2650
     11 O         -24.9010   -4.4419  -12.2215 O.2     1  UNL1       -0.2684
     12 C         -26.6105   -5.6698  -13.3102 C.ar    1  UNL1        0.1519
     13 N         -27.2518   -4.6915  -13.9718 N.ar    1  UNL1       -0.1651
     14 N         -28.3059   -5.2538  -14.5576 N.ar    1  UNL1       -0.2534
     15 C         -28.3474   -6.5750  -14.2508 C.ar    1  UNL1        0.0927
     16 C         -27.2532   -6.8607  -13.4670 C.ar    1  UNL1        0.0286
     17 C         -26.8801   -8.1062  -12.7096 C.3     1  UNL1        0.0994
     18 H         -24.1237   -6.6893  -11.2017 H       1  UNL1        0.1497
     19 C         -18.3478  -10.5087   -8.6871 C.ar    1  UNL1        0.2249
     20 C         -17.5874  -11.6663   -8.8802 C.ar    1  UNL1        0.0577
     21 C         -17.9784  -12.5967   -9.8454 C.ar    1  UNL1        0.0063
     22 C         -19.1280  -12.3645  -10.6110 C.ar    1  UNL1        0.0179
     23 C         -19.5452  -13.2724  -11.5930 C.ar    1  UNL1        0.0016
     24 C         -20.6972  -13.0133  -12.3416 C.ar    1  UNL1        0.0046
     25 C         -21.4532  -11.8507  -12.1112 C.ar    1  UNL1        0.0551
     26 C         -21.0231  -10.9319  -11.1382 C.ar    1  UNL1        0.0237
     27 C         -19.8715  -11.1862  -10.3861 C.ar    1  UNL1        0.0845
     28 N         -19.4641  -10.2976   -9.4403 N.ar    1  UNL1       -0.2117
     29 C         -18.0251   -9.8445   -6.3243 C.3     1  UNL1        0.2542
     30 O         -17.9510   -9.5804   -7.7203 O.3     1  UNL1       -0.4561
     31 C         -29.3140   -4.5162  -15.3449 C.3     1  UNL1        0.0867
     32 C         -28.6175   -3.7281  -16.4712 C.3     1  UNL1        0.0244
     33 C         -30.0808   -3.5204  -14.4480 C.3     1  UNL1        0.0244
     34 C         -30.3162   -5.5149  -15.9519 C.3     1  UNL1        0.0244
     35 C         -27.7382   -8.1735  -11.4589 C.2     1  UNL1        0.1564
     36 C         -27.1233   -8.1450  -10.0907 C.3     1  UNL1        0.0726
     37 O         -28.9541   -8.2547  -11.5574 O.2     1  UNL1       -0.2957
@<TRIPOS>BOND
     1    29    30    1
     2    30    19    1
     3    19    20   ar
     4    20    21   ar
     5    21    22   ar
     6    22    23   ar
     7    23    24   ar
     8    24    25   ar
     9    25     1    1
    10     1     2    2
    11     1     3   am
    12     3     4    1
    13     4     5    1
    14     5     6    1
    15     6     7    1
    16     7     8    1
    17     6     9    1
    18     9    10   am
    19    10    11    2
    20    10    12    1
    21    12    13   ar
    22    13    14   ar
    23    14    31    1
    24    31    32    1
    25    31    33    1
    26    31    34    1
    27    14    15   ar
    28    15    16   ar
    29    16    17    1
    30    17    35    1
    31    35    36    1
    32    35    37    2
    33    25    26   ar
    34    26    27   ar
    35    27    28   ar
    36    28    19   ar
    37    27    22   ar
    38     8     3    1
    39    16    12   ar
    40    17     6    1
    41     9    18    1
@<TRIPOS>MOLECULE
*****
 37 41 0 0 0
SMALL
GASTEIGER

@<TRIPOS>ATOM
      1 C         -25.7419   -5.1896  -13.1692 C.2     1  UNL1        0.2491
      2 O         -26.5391   -4.6488  -12.3546 O.2     1  UNL1       -0.2699
      3 N         -24.6413   -5.9723  -12.6669 N.am    1  UNL1       -0.2760
      4 C         -24.2018   -7.1869  -13.3707 C.3     1  UNL1        0.0954
      5 C         -23.8217   -8.2684  -12.3558 C.3     1  UNL1        0.0403
      6 C         -22.6635   -7.8224  -11.4038 C.3     1  UNL1        0.0707
      7 C         -22.6842   -6.2704  -11.1956 C.3     1  UNL1        0.0403
      8 C         -24.0823   -5.6596  -11.3449 C.3     1  UNL1        0.0954
      9 N         -21.3629   -8.1715  -12.0286 N.am    1  UNL1       -0.3019
     10 C         -20.1605   -8.2456  -11.2455 C.2     1  UNL1        0.2650
     11 O         -19.0284   -8.2769  -11.7958 O.2     1  UNL1       -0.2684
     12 C         -20.3028   -8.3112   -9.7982 C.ar    1  UNL1        0.1519
     13 N         -19.3313   -8.3649   -8.8712 N.ar    1  UNL1       -0.1651
     14 N         -19.9352   -8.4830   -7.6915 N.ar    1  UNL1       -0.2534
     15 C         -21.2796   -8.5282   -7.8696 C.ar    1  UNL1        0.0927
     16 C         -21.5314   -8.3982   -9.2160 C.ar    1  UNL1        0.0286
     17 C         -22.8080   -8.5415   -9.9995 C.3     1  UNL1        0.0994
     18 H         -21.2791   -8.2054  -13.0701 H       1  UNL1        0.1497
     19 C         -25.0317   -6.2640  -19.1720 C.ar    1  UNL1        0.2249
     20 C         -25.8965   -5.2767  -19.6547 C.ar    1  UNL1        0.0577
     21 C         -26.5721   -4.4498  -18.7546 C.ar    1  UNL1        0.0063
     22 C         -26.3797   -4.6159  -17.3773 C.ar    1  UNL1        0.0179
     23 C         -27.0350   -3.7995  -16.4463 C.ar    1  UNL1        0.0016
     24 C         -26.8228   -3.9891  -15.0775 C.ar    1  UNL1        0.0046
     25 C         -25.9632   -5.0034  -14.6209 C.ar    1  UNL1        0.0551
     26 C         -25.2924   -5.8097  -15.5568 C.ar    1  UNL1        0.0237
     27 C         -25.5012   -5.6246  -16.9274 C.ar    1  UNL1        0.0845
     28 N         -24.8556   -6.4128  -17.8286 N.ar    1  UNL1       -0.2117
     29 C         -25.0260   -8.0402  -20.8963 C.3     1  UNL1        0.2542
     30 O         -24.3574   -7.0880  -20.0777 O.3     1  UNL1       -0.4561
     31 C         -19.2274   -8.6303   -6.4040 C.3     1  UNL1        0.0867
     32 C         -20.2507   -8.8364   -5.2702 C.3     1  UNL1        0.0244
     33 C         -18.3962   -7.3666   -6.0938 C.3     1  UNL1        0.0244
     34 C         -18.2824   -9.8434   -6.4784 C.3     1  UNL1        0.0244
     35 C         -23.1191  -10.0218  -10.1293 C.2     1  UNL1        0.1564
     36 C         -24.3353  -10.6208   -9.4868 C.3     1  UNL1        0.0726
     37 O         -22.3698  -10.7488  -10.7655 O.2     1  UNL1       -0.2957
@<TRIPOS>BOND
     1    29    30    1
     2    30    19    1
     3    19    20   ar
     4    20    21   ar
     5    21    22   ar
     6    22    23   ar
     7    23    24   ar
     8    24    25   ar
     9    25     1    1
    10     1     2    2
    11     1     3   am
    12     3     4    1
    13     4     5    1
    14     5     6    1
    15     6     7    1
    16     7     8    1
    17     6     9    1
    18     9    10   am
    19    10    11    2
    20    10    12    1
    21    12    13   ar
    22    13    14   ar
    23    14    31    1
    24    31    32    1
    25    31    33    1
    26    31    34    1
    27    14    15   ar
    28    15    16   ar
    29    16    17    1
    30    17    35    1
    31    35    36    1
    32    35    37    2
    33    25    26   ar
    34    26    27   ar
    35    27    28   ar
    36    28    19   ar
    37    27    22   ar
    38     8     3    1
    39    16    12   ar
    40    17     6    1
    41     9    18    1
@<TRIPOS>MOLECULE
*****
 37 41 0 0 0
SMALL
GASTEIGER

@<TRIPOS>ATOM
      1 C         -26.6470   -8.1372  -11.7407 C.2     1  UNL1        0.2491
      2 O         -27.3066   -9.0736  -11.2119 O.2     1  UNL1       -0.2699
      3 N         -25.2993   -7.8844  -11.2980 N.am    1  UNL1       -0.2760
      4 C         -24.2617   -7.4669  -12.2535 C.3     1  UNL1        0.0954
      5 C         -22.9322   -8.1424  -11.9068 C.3     1  UNL1        0.0403
      6 C         -22.4299   -7.7842  -10.4694 C.3     1  UNL1        0.0707
      7 C         -23.6383   -7.4905   -9.5176 C.3     1  UNL1        0.0403
      8 C         -24.9190   -8.2298   -9.9217 C.3     1  UNL1        0.0954
      9 N         -21.6065   -6.5509  -10.5387 N.am    1  UNL1       -0.3019
     10 C         -20.7041   -6.2015   -9.4766 C.2     1  UNL1        0.2650
     11 O         -20.2084   -5.0465   -9.3996 O.2     1  UNL1       -0.2684
     12 C         -20.3648   -7.2386   -8.5131 C.ar    1  UNL1        0.1519
     13 N         -19.5669   -7.1408   -7.4361 N.ar    1  UNL1       -0.1651
     14 N         -19.5004   -8.3560   -6.8984 N.ar    1  UNL1       -0.2534
     15 C         -20.2313   -9.2246   -7.6418 C.ar    1  UNL1        0.0927
     16 C         -20.8090   -8.5168   -8.6707 C.ar    1  UNL1        0.0286
     17 C         -21.5764   -8.9811   -9.8788 C.3     1  UNL1        0.0994
     18 H         -21.7954   -5.8409  -11.2824 H       1  UNL1        0.1497
     19 C         -27.1016   -3.6362  -15.8912 C.ar    1  UNL1        0.2249
     20 C         -28.3901   -3.9212  -16.3537 C.ar    1  UNL1        0.0577
     21 C         -29.0976   -4.9953  -15.8096 C.ar    1  UNL1        0.0063
     22 C         -28.5119   -5.7786  -14.8073 C.ar    1  UNL1        0.0179
     23 C         -29.1954   -6.8587  -14.2338 C.ar    1  UNL1        0.0016
     24 C         -28.5847   -7.6225  -13.2346 C.ar    1  UNL1        0.0046
     25 C         -27.2800   -7.3249  -12.8040 C.ar    1  UNL1        0.0551
     26 C         -26.6026   -6.2297  -13.3675 C.ar    1  UNL1        0.0237
     27 C         -27.2087   -5.4623  -14.3677 C.ar    1  UNL1        0.0845
     28 N         -26.5457   -4.4084  -14.9152 N.ar    1  UNL1       -0.2117
     29 C         -25.3510   -1.8920  -15.7449 C.3     1  UNL1        0.2542
     30 O         -26.3986   -2.5591  -16.4387 O.3     1  UNL1       -0.4561
     31 C         -18.6785   -8.7030   -5.7218 C.3     1  UNL1        0.0867
     32 C         -17.6809   -7.5646   -5.4320 C.3     1  UNL1        0.0244
     33 C         -17.8834  -10.0014   -5.9789 C.3     1  UNL1        0.0244
     34 C         -19.5963   -8.9128   -4.5037 C.3     1  UNL1        0.0244
     35 C         -20.5844   -9.5431  -10.8814 C.2     1  UNL1        0.1564
     36 C         -20.5382  -11.0101  -11.1921 C.3     1  UNL1        0.0726
     37 O         -19.8026   -8.7949  -11.4504 O.2     1  UNL1       -0.2957
@<TRIPOS>BOND
     1    29    30    1
     2    30    19    1
     3    19    20   ar
     4    20    21   ar
     5    21    22   ar
     6    22    23   ar
     7    23    24   ar
     8    24    25   ar
     9    25     1    1
    10     1     2    2
    11     1     3   am
    12     3     4    1
    13     4     5    1
    14     5     6    1
    15     6     7    1
    16     7     8    1
    17     6     9    1
    18     9    10   am
    19    10    11    2
    20    10    12    1
    21    12    13   ar
    22    13    14   ar
    23    14    31    1
    24    31    32    1
    25    31    33    1
    26    31    34    1
    27    14    15   ar
    28    15    16   ar
    29    16    17    1
    30    17    35    1
    31    35    36    1
    32    35    37    2
    33    25    26   ar
    34    26    27   ar
    35    27    28   ar
    36    28    19   ar
    37    27    22   ar
    38     8     3    1
    39    16    12   ar
    40    17     6    1
    41     9    18    1
@<TRIPOS>MOLECULE
*****
 37 41 0 0 0
SMALL
GASTEIGER

@<TRIPOS>ATOM
      1 C         -22.4691   -5.5439  -11.1090 C.2     1  UNL1        0.2491
      2 O         -22.1811   -4.3603  -10.7806 O.2     1  UNL1       -0.2699
      3 N         -23.6577   -5.7927  -11.8846 N.am    1  UNL1       -0.2760
      4 C         -23.6726   -6.8372  -12.9203 C.3     1  UNL1        0.0954
      5 C         -24.4749   -6.3571  -14.1328 C.3     1  UNL1        0.0403
      6 C         -25.9594   -6.0156  -13.7775 C.3     1  UNL1        0.0707
      7 C         -26.0764   -5.5328  -12.2923 C.3     1  UNL1        0.0403
      8 C         -24.7961   -4.8713  -11.7695 C.3     1  UNL1        0.0954
      9 N         -26.7835   -7.2428  -13.9140 N.am    1  UNL1       -0.3019
     10 C         -28.2131   -7.1657  -14.0361 C.2     1  UNL1        0.2650
     11 O         -28.9334   -8.1877  -13.8863 O.2     1  UNL1       -0.2684
     12 C         -28.7917   -5.8713  -14.3661 C.ar    1  UNL1        0.1519
     13 N         -30.0901   -5.5562  -14.5106 N.ar    1  UNL1       -0.1651
     14 N         -30.1343   -4.2784  -14.8791 N.ar    1  UNL1       -0.2534
     15 C         -28.8725   -3.7920  -14.9913 C.ar    1  UNL1        0.0927
     16 C         -28.0002   -4.7982  -14.6449 C.ar    1  UNL1        0.0286
     17 C         -26.5009   -4.8810  -14.7415 C.3     1  UNL1        0.0994
     18 H         -26.3492   -8.1806  -13.7575 H       1  UNL1        0.1497
     19 C         -19.1517   -8.9472   -7.2225 C.ar    1  UNL1        0.2249
     20 C         -18.6487   -9.8697   -8.1451 C.ar    1  UNL1        0.0577
     21 C         -18.9983   -9.7599   -9.4927 C.ar    1  UNL1        0.0063
     22 C         -19.8498   -8.7289   -9.9093 C.ar    1  UNL1        0.0179
     23 C         -20.2151   -8.5841  -11.2541 C.ar    1  UNL1        0.0016
     24 C         -21.0668   -7.5446  -11.6399 C.ar    1  UNL1        0.0046
     25 C         -21.5735   -6.6441  -10.6866 C.ar    1  UNL1        0.0551
     26 C         -21.1913   -6.7799   -9.3408 C.ar    1  UNL1        0.0237
     27 C         -20.3398   -7.8181   -8.9490 C.ar    1  UNL1        0.0845
     28 N         -19.9795   -7.9497   -7.6441 N.ar    1  UNL1       -0.2117
     29 C         -17.8008   -9.9669   -5.4160 C.3     1  UNL1        0.2542
     30 O         -18.7975   -9.0615   -5.8751 O.3     1  UNL1       -0.4561
     31 C         -31.3757   -3.5455  -15.1985 C.3     1  UNL1        0.0867
     32 C         -31.2717   -2.9402  -16.6119 C.3     1  UNL1        0.0244
     33 C         -31.6056   -2.4010  -14.1879 C.3     1  UNL1        0.0244
     34 C         -32.5700   -4.5150  -15.1346 C.3     1  UNL1        0.0244
     35 C         -26.1338   -5.1233  -16.1946 C.2     1  UNL1        0.1564
     36 C         -26.4337   -4.1038  -17.2536 C.3     1  UNL1        0.0726
     37 O         -25.5850   -6.1666  -16.5190 O.2     1  UNL1       -0.2957
@<TRIPOS>BOND
     1    29    30    1
     2    30    19    1
     3    19    20   ar
     4    20    21   ar
     5    21    22   ar
     6    22    23   ar
     7    23    24   ar
     8    24    25   ar
     9    25     1    1
    10     1     2    2
    11     1     3   am
    12     3     4    1
    13     4     5    1
    14     5     6    1
    15     6     7    1
    16     7     8    1
    17     6     9    1
    18     9    10   am
    19    10    11    2
    20    10    12    1
    21    12    13   ar
    22    13    14   ar
    23    14    31    1
    24    31    32    1
    25    31    33    1
    26    31    34    1
    27    14    15   ar
    28    15    16   ar
    29    16    17    1
    30    17    35    1
    31    35    36    1
    32    35    37    2
    33    25    26   ar
    34    26    27   ar
    35    27    28   ar
    36    28    19   ar
    37    27    22   ar
    38     8     3    1
    39    16    12   ar
    40    17     6    1
    41     9    18    1
@<TRIPOS>MOLECULE
*****
 37 41 0 0 0
SMALL
GASTEIGER

@<TRIPOS>ATOM
      1 C         -25.7970   -5.2209  -12.9892 C.2     1  UNL1        0.2491
      2 O         -26.5964   -4.7160  -12.1540 O.2     1  UNL1       -0.2699
      3 N         -24.6745   -5.9910  -12.5166 N.am    1  UNL1       -0.2760
      4 C         -24.2171   -7.1796  -13.2528 C.3     1  UNL1        0.0954
      5 C         -23.8030   -8.2755  -12.2671 C.3     1  UNL1        0.0403
      6 C         -22.6441   -7.8266  -11.3173 C.3     1  UNL1        0.0707
      7 C         -22.6955   -6.2805  -11.0732 C.3     1  UNL1        0.0403
      8 C         -24.1078   -5.6966  -11.1937 C.3     1  UNL1        0.0954
      9 N         -21.3433   -8.1333  -11.9636 N.am    1  UNL1       -0.3019
     10 C         -20.1311   -8.1994  -11.1951 C.2     1  UNL1        0.2650
     11 O         -19.0047   -8.1938  -11.7578 O.2     1  UNL1       -0.2684
     12 C         -20.2561   -8.3010   -9.7483 C.ar    1  UNL1        0.1519
     13 N         -19.2735   -8.3549   -8.8330 N.ar    1  UNL1       -0.1651
     14 N         -19.8617   -8.5129   -7.6501 N.ar    1  UNL1       -0.2534
     15 C         -21.2068   -8.5828   -7.8150 C.ar    1  UNL1        0.0927
     16 C         -21.4760   -8.4277   -9.1554 C.ar    1  UNL1        0.0286
     17 C         -22.7579   -8.5804   -9.9285 C.3     1  UNL1        0.0994
     18 H         -21.2703   -8.1417  -13.0064 H       1  UNL1        0.1497
     19 C         -28.5907   -2.9786  -17.9751 C.ar    1  UNL1        0.2249
     20 C         -27.7918   -3.5932  -18.9444 C.ar    1  UNL1        0.0577
     21 C         -26.7406   -4.4229  -18.5485 C.ar    1  UNL1        0.0063
     22 C         -26.4939   -4.6322  -17.1859 C.ar    1  UNL1        0.0179
     23 C         -25.4530   -5.4641  -16.7531 C.ar    1  UNL1        0.0016
     24 C         -25.2312   -5.6539  -15.3858 C.ar    1  UNL1        0.0046
     25 C         -26.0380   -5.0065  -14.4339 C.ar    1  UNL1        0.0551
     26 C         -27.0933   -4.1867  -14.8699 C.ar    1  UNL1        0.0237
     27 C         -27.3197   -3.9930  -16.2365 C.ar    1  UNL1        0.0845
     28 N         -28.3373   -3.1924  -16.6530 N.ar    1  UNL1       -0.2117
     29 C         -30.9027   -2.1320  -17.7179 C.3     1  UNL1        0.2542
     30 O         -29.6422   -2.1500  -18.3773 O.3     1  UNL1       -0.4561
     31 C         -19.1369   -8.6742   -6.3738 C.3     1  UNL1        0.0867
     32 C         -20.1463   -8.8526   -5.2230 C.3     1  UNL1        0.0244
     33 C         -18.2704   -7.4304   -6.0807 C.3     1  UNL1        0.0244
     34 C         -18.2229   -9.9101   -6.4601 C.3     1  UNL1        0.0244
     35 C         -23.0389  -10.0637  -10.0891 C.2     1  UNL1        0.1564
     36 C         -24.2438  -10.7000   -9.4613 C.3     1  UNL1        0.0726
     37 O         -22.2741  -10.7623  -10.7385 O.2     1  UNL1       -0.2957
@<TRIPOS>BOND
     1    29    30    1
     2    30    19    1
     3    19    20   ar
     4    20    21   ar
     5    21    22   ar
     6    22    23   ar
     7    23    24   ar
     8    24    25   ar
     9    25     1    1
    10     1     2    2
    11     1     3   am
    12     3     4    1
    13     4     5    1
    14     5     6    1
    15     6     7    1
    16     7     8    1
    17     6     9    1
    18     9    10   am
    19    10    11    2
    20    10    12    1
    21    12    13   ar
    22    13    14   ar
    23    14    31    1
    24    31    32    1
    25    31    33    1
    26    31    34    1
    27    14    15   ar
    28    15    16   ar
    29    16    17    1
    30    17    35    1
    31    35    36    1
    32    35    37    2
    33    25    26   ar
    34    26    27   ar
    35    27    28   ar
    36    28    19   ar
    37    27    22   ar
    38     8     3    1
    39    16    12   ar
    40    17     6    1
    41     9    18    1
@<TRIPOS>MOLECULE
*****
 37 41 0 0 0
SMALL
GASTEIGER

@<TRIPOS>ATOM
      1 C         -22.7707   -6.0031  -11.2094 C.2     1  UNL1        0.2491
      2 O         -22.4541   -4.8743  -10.7434 O.2     1  UNL1       -0.2699
      3 N         -23.9538   -6.1251  -12.0229 N.am    1  UNL1       -0.2760
      4 C         -23.9826   -7.0429  -13.1721 C.3     1  UNL1        0.0954
      5 C         -24.7520   -6.4028  -14.3307 C.3     1  UNL1        0.0403
      6 C         -26.2314   -6.0596  -13.9564 C.3     1  UNL1        0.0707
      7 C         -26.3575   -5.7471  -12.4269 C.3     1  UNL1        0.0403
      8 C         -25.0670   -5.1891  -11.8161 C.3     1  UNL1        0.0954
      9 N         -27.0882   -7.2375  -14.2433 N.am    1  UNL1       -0.3019
     10 C         -28.5129   -7.1038  -14.3729 C.2     1  UNL1        0.2650
     11 O         -29.2644   -8.1139  -14.3505 O.2     1  UNL1       -0.2684
     12 C         -29.0490   -5.7632  -14.5586 C.ar    1  UNL1        0.1519
     13 N         -30.3355   -5.3944  -14.6814 N.ar    1  UNL1       -0.1651
     14 N         -30.3373   -4.0821  -14.9009 N.ar    1  UNL1       -0.2534
     15 C         -29.0606   -3.6244  -14.9410 C.ar    1  UNL1        0.0927
     16 C         -28.2229   -4.6896  -14.7023 C.ar    1  UNL1        0.0286
     17 C         -26.7253   -4.8060  -14.7897 C.3     1  UNL1        0.0994
     18 H         -26.6833   -8.1999  -14.1906 H       1  UNL1        0.1497
     19 C         -20.6620  -11.7456  -11.7284 C.ar    1  UNL1        0.2249
     20 C         -19.6783  -11.6869  -10.7362 C.ar    1  UNL1        0.0577
     21 C         -19.4919  -10.5043  -10.0172 C.ar    1  UNL1        0.0063
     22 C         -20.2895   -9.3872  -10.2953 C.ar    1  UNL1        0.0179
     23 C         -20.1352   -8.1874   -9.5886 C.ar    1  UNL1        0.0016
     24 C         -20.9465   -7.0891   -9.8888 C.ar    1  UNL1        0.0046
     25 C         -21.9136   -7.1711  -10.9058 C.ar    1  UNL1        0.0551
     26 C         -22.0795   -8.3812  -11.6014 C.ar    1  UNL1        0.0237
     27 C         -21.2704   -9.4832  -11.3055 C.ar    1  UNL1        0.0845
     28 N         -21.4298  -10.6494  -11.9871 N.ar    1  UNL1       -0.2117
     29 C         -21.2055  -12.9528  -13.8201 C.3     1  UNL1        0.2542
     30 O         -20.8447  -12.9323  -12.4441 O.3     1  UNL1       -0.4561
     31 C         -31.5522   -3.2802  -15.1486 C.3     1  UNL1        0.0867
     32 C         -31.4977   -2.6808  -16.5674 C.3     1  UNL1        0.0244
     33 C         -31.6573   -2.1251  -14.1294 C.3     1  UNL1        0.0244
     34 C         -32.7933   -4.1808  -15.0119 C.3     1  UNL1        0.0244
     35 C         -26.3429   -4.8910  -16.2566 C.2     1  UNL1        0.1564
     36 C         -26.7519   -3.8256  -17.2305 C.3     1  UNL1        0.0726
     37 O         -25.6911   -5.8423  -16.6626 O.2     1  UNL1       -0.2957
@<TRIPOS>BOND
     1    29    30    1
     2    30    19    1
     3    19    20   ar
     4    20    21   ar
     5    21    22   ar
     6    22    23   ar
     7    23    24   ar
     8    24    25   ar
     9    25     1    1
    10     1     2    2
    11     1     3   am
    12     3     4    1
    13     4     5    1
    14     5     6    1
    15     6     7    1
    16     7     8    1
    17     6     9    1
    18     9    10   am
    19    10    11    2
    20    10    12    1
    21    12    13   ar
    22    13    14   ar
    23    14    31    1
    24    31    32    1
    25    31    33    1
    26    31    34    1
    27    14    15   ar
    28    15    16   ar
    29    16    17    1
    30    17    35    1
    31    35    36    1
    32    35    37    2
    33    25    26   ar
    34    26    27   ar
    35    27    28   ar
    36    28    19   ar
    37    27    22   ar
    38     8     3    1
    39    16    12   ar
    40    17     6    1
    41     9    18    1
