@<TRIPOS>MOLECULE
*****
 47 52 0 0 0
SMALL
GASTEIGER

@<TRIPOS>ATOM
      1 C         -24.1149   51.2982   -9.3458 C.ar    1  UNL1        0.1318
      2 C         -25.3879   51.1093   -9.9103 C.ar    1  UNL1        0.0356
      3 C         -26.3899   50.4900   -9.1618 C.ar    1  UNL1        0.0191
      4 C         -26.1257   50.0527   -7.8545 C.ar    1  UNL1        0.0702
      5 C         -24.8540   50.2876   -7.3168 C.ar    1  UNL1        0.1149
      6 N         -23.8932   50.8918   -8.0643 N.ar    1  UNL1       -0.2279
      7 C         -21.1051   53.2522  -11.8713 C.3     1  UNL1        0.0471
      8 C         -20.9147   51.8229  -11.3180 C.3     1  UNL1        0.0252
      9 C         -22.2569   51.1457  -11.0276 C.3     1  UNL1        0.0923
     10 N         -23.0543   51.9419  -10.0823 N.pl3   1  UNL1       -0.2932
     11 C         -22.7528   53.3703   -9.8930 C.3     1  UNL1        0.0923
     12 C         -22.2969   54.0019  -11.2133 C.3     1  UNL1        0.0252
     13 C         -19.7927   54.0496  -11.7331 C.3     1  UNL1        0.2054
     14 O         -19.0624   53.6417  -10.5746 O.3     1  UNL1       -0.4757
     15 C         -19.1056   53.3245   -8.1708 C.ar    1  UNL1        0.0413
     16 C         -19.2310   53.8472   -6.8761 C.ar    1  UNL1        0.0014
     17 C         -19.4336   55.2125   -6.6777 C.ar    1  UNL1        0.0064
     18 C         -19.5270   56.0855   -7.7719 C.ar    1  UNL1        0.0785
     19 C         -19.3914   55.5668   -9.0713 C.ar    1  UNL1        0.0431
     20 C         -19.1901   54.1868   -9.2834 C.ar    1  UNL1        0.1371
     21 C         -19.7462   57.5346   -7.5447 C.2     1  UNL1        0.3381
     22 O         -19.3457   58.3691   -8.3995 O.2     1  UNL1       -0.2451
     23 O         -20.3733   58.0102   -6.3934 O.3     1  UNL1       -0.4771
     24 H         -20.6214   57.4076   -5.6194 H       1  UNL1        0.2954
     25 C         -18.9256   51.8343   -8.3419 C.3     1  UNL1        0.1717
     26 C         -17.5351   50.4029   -9.5220 C.3     1  UNL1        0.1746
     27 O         -17.5841   51.5250   -8.6675 O.3     1  UNL1       -0.3462
     28 N         -27.1396   49.4339   -7.0440 N.am    1  UNL1       -0.2766
     29 C         -28.1347   50.1668   -6.3140 C.2     1  UNL1        0.2839
     30 O         -28.4810   51.3155   -6.7007 O.2     1  UNL1       -0.2665
     31 H         -27.2257   48.3934   -7.0738 H       1  UNL1        0.1553
     32 C         -28.8276   49.5693   -5.1590 C.ar    1  UNL1        0.1946
     33 O         -29.8603   50.1512   -4.5748 O.2     1  UNL1       -0.4492
     34 C         -30.2582   49.3767   -3.5951 C.ar    1  UNL1        0.1452
     35 C         -31.3188   49.5944   -2.7225 C.ar    1  UNL1        0.0375
     36 C         -31.5747   48.6225   -1.7394 C.ar    1  UNL1        0.0031
     37 C         -30.7713   47.4538   -1.6435 C.ar    1  UNL1        0.0002
     38 C         -29.7000   47.2724   -2.5509 C.ar    1  UNL1        0.0028
     39 C         -29.4753   48.2576   -3.5128 C.ar    1  UNL1        0.0337
     40 C         -28.5263   48.3653   -4.5097 C.ar    1  UNL1        0.0202
     41 C         -27.4227   47.3953   -4.8064 C.3     1  UNL1        0.0345
     42 C         -31.0517   46.4332   -0.6020 C.ar    1  UNL1        0.0000
     43 C         -31.2155   45.0793   -0.9524 C.ar    1  UNL1        0.0000
     44 C         -31.4795   44.1203    0.0304 C.ar    1  UNL1        0.0000
     45 C         -31.5839   44.5000    1.3703 C.ar    1  UNL1        0.0000
     46 C         -31.4242   45.8397    1.7307 C.ar    1  UNL1        0.0000
     47 C         -31.1590   46.8030    0.7522 C.ar    1  UNL1        0.0000
@<TRIPOS>BOND
     1    26    27    1
     2    27    25    1
     3    25    15    1
     4    15    16   ar
     5    16    17   ar
     6    17    18   ar
     7    18    21    1
     8    21    22    2
     9    21    23    1
    10    18    19   ar
    11    19    20   ar
    12    20    14    1
    13    14    13    1
    14    13     7    1
    15     7     8    1
    16     8     9    1
    17     9    10    1
    18    10     1    1
    19     1     2   ar
    20     2     3   ar
    21     3     4   ar
    22     4    28    1
    23    28    29   am
    24    29    30    2
    25    29    32    1
    26    32    33   ar
    27    33    34   ar
    28    34    35   ar
    29    35    36   ar
    30    36    37   ar
    31    37    42    1
    32    42    43   ar
    33    43    44   ar
    34    44    45   ar
    35    45    46   ar
    36    46    47   ar
    37    37    38   ar
    38    38    39   ar
    39    39    40   ar
    40    40    41    1
    41     4     5   ar
    42     5     6   ar
    43    10    11    1
    44    11    12    1
    45    20    15   ar
    46    12     7    1
    47     6     1   ar
    48    40    32   ar
    49    39    34   ar
    50    47    42   ar
    51    23    24    1
    52    28    31    1
@<TRIPOS>MOLECULE
*****
 47 52 0 0 0
SMALL
GASTEIGER

@<TRIPOS>ATOM
      1 C         -25.5766   50.0529   -9.6830 C.ar    1  UNL1        0.1318
      2 C         -25.1029   50.5431  -10.9118 C.ar    1  UNL1        0.0356
      3 C         -24.2157   51.6204  -10.9294 C.ar    1  UNL1        0.0191
      4 C         -23.8038   52.2147   -9.7264 C.ar    1  UNL1        0.0702
      5 C         -24.2737   51.6771   -8.5216 C.ar    1  UNL1        0.1149
      6 N         -25.1377   50.6281   -8.5284 N.ar    1  UNL1       -0.2279
      7 C         -28.2012   46.5381   -9.7983 C.3     1  UNL1        0.0471
      8 C         -28.7398   47.9752   -9.9711 C.3     1  UNL1        0.0252
      9 C         -27.6622   48.9224  -10.5055 C.3     1  UNL1        0.0923
     10 N         -26.4875   48.9356   -9.6205 N.pl3   1  UNL1       -0.2932
     11 C         -26.2664   47.8235   -8.6816 C.3     1  UNL1        0.0923
     12 C         -26.7296   46.4995   -9.2999 C.3     1  UNL1        0.0252
     13 C         -29.1322   45.7349   -8.8680 C.3     1  UNL1        0.2054
     14 O         -29.6459   46.5579   -7.8189 O.3     1  UNL1       -0.4757
     15 C         -29.2435   47.9309   -5.8609 C.ar    1  UNL1        0.0413
     16 C         -28.6964   48.0949   -4.5807 C.ar    1  UNL1        0.0014
     17 C         -28.0056   47.0520   -3.9645 C.ar    1  UNL1        0.0064
     18 C         -27.8363   45.8236   -4.6206 C.ar    1  UNL1        0.0785
     19 C         -28.3924   45.6517   -5.9000 C.ar    1  UNL1        0.0431
     20 C         -29.0896   46.7014   -6.5341 C.ar    1  UNL1        0.1371
     21 C         -27.0960   44.7251   -3.9534 C.2     1  UNL1        0.3381
     22 O         -26.0421   44.2739   -4.4759 O.2     1  UNL1       -0.2451
     23 O         -27.5435   44.1571   -2.7610 O.3     1  UNL1       -0.4771
     24 H         -28.4348   44.3946   -2.3449 H       1  UNL1        0.2954
     25 C         -29.9508   49.0990   -6.5073 C.3     1  UNL1        0.1717
     26 C         -28.5776   50.8283   -7.2134 C.3     1  UNL1        0.1746
     27 O         -29.3403   50.3210   -6.1398 O.3     1  UNL1       -0.3462
     28 N         -22.8715   53.3093   -9.7034 N.am    1  UNL1       -0.2766
     29 C         -21.5680   53.2344   -9.1070 C.2     1  UNL1        0.2839
     30 O         -20.9858   52.1214   -9.0030 O.2     1  UNL1       -0.2665
     31 H         -23.1106   54.1702  -10.2443 H       1  UNL1        0.1553
     32 C         -20.8522   54.4508   -8.6834 C.ar    1  UNL1        0.1946
     33 O         -19.8342   54.4156   -7.8415 O.2     1  UNL1       -0.4492
     34 C         -19.4088   55.6437   -7.6719 C.ar    1  UNL1        0.1452
     35 C         -18.3509   56.0699   -6.8765 C.ar    1  UNL1        0.0375
     36 C         -18.0616   57.4454   -6.8445 C.ar    1  UNL1        0.0031
     37 C         -18.8298   58.3695   -7.6038 C.ar    1  UNL1        0.0002
     38 C         -19.8997   57.8933   -8.3990 C.ar    1  UNL1        0.0028
     39 C         -20.1581   56.5223   -8.4060 C.ar    1  UNL1        0.0337
     40 C         -21.1147   55.7735   -9.0620 C.ar    1  UNL1        0.0202
     41 C         -22.1906   56.2889   -9.9695 C.3     1  UNL1        0.0345
     42 C         -18.5144   59.8200   -7.5635 C.ar    1  UNL1        0.0000
     43 C         -17.2367   60.2851   -7.9293 C.ar    1  UNL1        0.0000
     44 C         -16.9424   61.6515   -7.8903 C.ar    1  UNL1        0.0000
     45 C         -17.9164   62.5671   -7.4861 C.ar    1  UNL1        0.0000
     46 C         -19.1872   62.1184   -7.1201 C.ar    1  UNL1        0.0000
     47 C         -19.4875   60.7532   -7.1580 C.ar    1  UNL1        0.0000
@<TRIPOS>BOND
     1    26    27    1
     2    27    25    1
     3    25    15    1
     4    15    16   ar
     5    16    17   ar
     6    17    18   ar
     7    18    21    1
     8    21    22    2
     9    21    23    1
    10    18    19   ar
    11    19    20   ar
    12    20    14    1
    13    14    13    1
    14    13     7    1
    15     7     8    1
    16     8     9    1
    17     9    10    1
    18    10     1    1
    19     1     2   ar
    20     2     3   ar
    21     3     4   ar
    22     4    28    1
    23    28    29   am
    24    29    30    2
    25    29    32    1
    26    32    33   ar
    27    33    34   ar
    28    34    35   ar
    29    35    36   ar
    30    36    37   ar
    31    37    42    1
    32    42    43   ar
    33    43    44   ar
    34    44    45   ar
    35    45    46   ar
    36    46    47   ar
    37    37    38   ar
    38    38    39   ar
    39    39    40   ar
    40    40    41    1
    41     4     5   ar
    42     5     6   ar
    43    10    11    1
    44    11    12    1
    45    20    15   ar
    46    12     7    1
    47     6     1   ar
    48    40    32   ar
    49    39    34   ar
    50    47    42   ar
    51    23    24    1
    52    28    31    1
@<TRIPOS>MOLECULE
*****
 47 52 0 0 0
SMALL
GASTEIGER

@<TRIPOS>ATOM
      1 C         -23.9572   51.3548   -9.5535 C.ar    1  UNL1        0.1318
      2 C         -25.2555   51.1794  -10.0618 C.ar    1  UNL1        0.0356
      3 C         -26.2031   50.4836   -9.3095 C.ar    1  UNL1        0.0191
      4 C         -25.8593   49.9567   -8.0549 C.ar    1  UNL1        0.0702
      5 C         -24.5646   50.1799   -7.5697 C.ar    1  UNL1        0.1149
      6 N         -23.6578   50.8597   -8.3198 N.ar    1  UNL1       -0.2279
      7 C         -21.0625   53.4406  -12.1079 C.3     1  UNL1        0.0471
      8 C         -20.6720   52.2200  -11.2461 C.3     1  UNL1        0.0252
      9 C         -21.8778   51.3208  -10.9603 C.3     1  UNL1        0.0923
     10 N         -22.9509   52.0754  -10.2950 N.pl3   1  UNL1       -0.2932
     11 C         -22.9753   53.5446  -10.3838 C.3     1  UNL1        0.0923
     12 C         -22.4653   54.0078  -11.7531 C.3     1  UNL1        0.0252
     13 C         -19.9734   54.5273  -12.0062 C.3     1  UNL1        0.2054
     14 O         -20.1881   55.3661  -10.8694 O.3     1  UNL1       -0.4757
     15 C         -19.7464   56.1343   -8.6121 C.ar    1  UNL1        0.0413
     16 C         -19.3627   55.8707   -7.2898 C.ar    1  UNL1        0.0014
     17 C         -19.0398   54.5749   -6.8887 C.ar    1  UNL1        0.0064
     18 C         -19.0821   53.5137   -7.8054 C.ar    1  UNL1        0.0785
     19 C         -19.4764   53.7721   -9.1296 C.ar    1  UNL1        0.0431
     20 C         -19.8014   55.0798   -9.5469 C.ar    1  UNL1        0.1371
     21 C         -18.7323   52.1415   -7.3643 C.2     1  UNL1        0.3381
     22 O         -18.1938   51.3422   -8.1758 O.2     1  UNL1       -0.2451
     23 O         -18.9992   51.6965   -6.0699 O.3     1  UNL1       -0.4771
     24 H         -19.5253   52.2456   -5.4024 H       1  UNL1        0.2954
     25 C         -20.0506   57.5587   -9.0136 C.3     1  UNL1        0.1717
     26 C         -19.0062   58.6267   -7.2408 C.3     1  UNL1        0.1746
     27 O         -18.9955   58.4224   -8.6371 O.3     1  UNL1       -0.3462
     28 N         -26.8153   49.2566   -7.2403 N.am    1  UNL1       -0.2766
     29 C         -28.0191   49.8518   -6.7334 C.2     1  UNL1        0.2839
     30 O         -28.5434   50.8255   -7.3382 O.2     1  UNL1       -0.2665
     31 H         -26.6833   48.2301   -7.0997 H       1  UNL1        0.1553
     32 C         -28.7088   49.2940   -5.5568 C.ar    1  UNL1        0.1946
     33 O         -29.9164   48.7622   -5.6306 O.2     1  UNL1       -0.4492
     34 C         -30.2492   48.3499   -4.4318 C.ar    1  UNL1        0.1452
     35 C         -31.4297   47.7212   -4.0513 C.ar    1  UNL1        0.0375
     36 C         -31.5777   47.3563   -2.7016 C.ar    1  UNL1        0.0031
     37 C         -30.5493   47.6236   -1.7575 C.ar    1  UNL1        0.0002
     38 C         -29.3639   48.2674   -2.1869 C.ar    1  UNL1        0.0028
     39 C         -29.2520   48.6154   -3.5333 C.ar    1  UNL1        0.0337
     40 C         -28.2438   49.2439   -4.2365 C.ar    1  UNL1        0.0202
     41 C         -26.9484   49.7560   -3.6829 C.3     1  UNL1        0.0345
     42 C         -30.7158   47.2325   -0.3347 C.ar    1  UNL1        0.0000
     43 C         -31.3562   46.0255    0.0055 C.ar    1  UNL1        0.0000
     44 C         -31.5117   45.6597    1.3462 C.ar    1  UNL1        0.0000
     45 C         -31.0325   46.4920    2.3600 C.ar    1  UNL1        0.0000
     46 C         -30.3961   47.6921    2.0357 C.ar    1  UNL1        0.0000
     47 C         -30.2369   48.0625    0.6967 C.ar    1  UNL1        0.0000
@<TRIPOS>BOND
     1    26    27    1
     2    27    25    1
     3    25    15    1
     4    15    16   ar
     5    16    17   ar
     6    17    18   ar
     7    18    21    1
     8    21    22    2
     9    21    23    1
    10    18    19   ar
    11    19    20   ar
    12    20    14    1
    13    14    13    1
    14    13     7    1
    15     7     8    1
    16     8     9    1
    17     9    10    1
    18    10     1    1
    19     1     2   ar
    20     2     3   ar
    21     3     4   ar
    22     4    28    1
    23    28    29   am
    24    29    30    2
    25    29    32    1
    26    32    33   ar
    27    33    34   ar
    28    34    35   ar
    29    35    36   ar
    30    36    37   ar
    31    37    42    1
    32    42    43   ar
    33    43    44   ar
    34    44    45   ar
    35    45    46   ar
    36    46    47   ar
    37    37    38   ar
    38    38    39   ar
    39    39    40   ar
    40    40    41    1
    41     4     5   ar
    42     5     6   ar
    43    10    11    1
    44    11    12    1
    45    20    15   ar
    46    12     7    1
    47     6     1   ar
    48    40    32   ar
    49    39    34   ar
    50    47    42   ar
    51    23    24    1
    52    28    31    1
@<TRIPOS>MOLECULE
*****
 47 52 0 0 0
SMALL
GASTEIGER

@<TRIPOS>ATOM
      1 C         -25.4880   50.0294   -9.6394 C.ar    1  UNL1        0.1318
      2 C         -25.0810   50.5686  -10.8716 C.ar    1  UNL1        0.0356
      3 C         -24.2111   51.6598  -10.8939 C.ar    1  UNL1        0.0191
      4 C         -23.7502   52.2193   -9.6920 C.ar    1  UNL1        0.0702
      5 C         -24.1538   51.6335   -8.4856 C.ar    1  UNL1        0.1149
      6 N         -25.0022   50.5718   -8.4877 N.ar    1  UNL1       -0.2279
      7 C         -28.0359   46.4579   -9.7297 C.3     1  UNL1        0.0471
      8 C         -28.5941   47.8754   -9.9836 C.3     1  UNL1        0.0252
      9 C         -27.5121   48.8236  -10.5074 C.3     1  UNL1        0.0923
     10 N         -26.3788   48.8964   -9.5725 N.pl3   1  UNL1       -0.2932
     11 C         -26.1787   47.8268   -8.5810 C.3     1  UNL1        0.0923
     12 C         -26.5877   46.4701   -9.1656 C.3     1  UNL1        0.0252
     13 C         -28.9921   45.6722   -8.8101 C.3     1  UNL1        0.2054
     14 O         -28.5170   45.6619   -7.4624 O.3     1  UNL1       -0.4757
     15 C         -28.7777   46.0528   -5.0833 C.ar    1  UNL1        0.0413
     16 C         -29.2433   46.8434   -4.0235 C.ar    1  UNL1        0.0014
     17 C         -29.9117   48.0418   -4.2715 C.ar    1  UNL1        0.0064
     18 C         -30.1402   48.4713   -5.5875 C.ar    1  UNL1        0.0785
     19 C         -29.6657   47.6866   -6.6527 C.ar    1  UNL1        0.0431
     20 C         -28.9917   46.4707   -6.4131 C.ar    1  UNL1        0.1371
     21 C         -30.8558   49.7466   -5.8350 C.2     1  UNL1        0.3381
     22 O         -31.4203   50.3424   -4.8791 O.2     1  UNL1       -0.2451
     23 O         -30.9399   50.3053   -7.1100 O.3     1  UNL1       -0.4771
     24 H         -30.6051   49.8283   -7.9372 H       1  UNL1        0.2954
     25 C         -28.0925   44.7431   -4.7706 C.3     1  UNL1        0.1717
     26 C         -26.0796   44.2470   -3.7329 C.3     1  UNL1        0.1746
     27 O         -26.6865   44.8842   -4.8362 O.3     1  UNL1       -0.3462
     28 N         -22.8334   53.3270   -9.6754 N.am    1  UNL1       -0.2766
     29 C         -21.5177   53.2651   -9.1049 C.2     1  UNL1        0.2839
     30 O         -20.9176   52.1596   -9.0239 O.2     1  UNL1       -0.2665
     31 H         -23.0953   54.1898  -10.2024 H       1  UNL1        0.1553
     32 C         -20.8114   54.4873   -8.6823 C.ar    1  UNL1        0.1946
     33 O         -19.7915   54.4606   -7.8425 O.2     1  UNL1       -0.4492
     34 C         -19.3762   55.6922   -7.6733 C.ar    1  UNL1        0.1452
     35 C         -18.3204   56.1271   -6.8799 C.ar    1  UNL1        0.0375
     36 C         -18.0428   57.5050   -6.8480 C.ar    1  UNL1        0.0031
     37 C         -18.8202   58.4227   -7.6054 C.ar    1  UNL1        0.0002
     38 C         -19.8877   57.9377   -8.3987 C.ar    1  UNL1        0.0028
     39 C         -20.1344   56.5646   -8.4057 C.ar    1  UNL1        0.0337
     40 C         -21.0859   55.8079   -9.0599 C.ar    1  UNL1        0.0202
     41 C         -22.1680   56.3144   -9.9651 C.3     1  UNL1        0.0345
     42 C         -18.5171   59.8759   -7.5653 C.ar    1  UNL1        0.0000
     43 C         -17.2415   60.3511   -7.9252 C.ar    1  UNL1        0.0000
     44 C         -16.9588   61.7200   -7.8864 C.ar    1  UNL1        0.0000
     45 C         -17.9423   62.6279   -7.4881 C.ar    1  UNL1        0.0000
     46 C         -19.2113   62.1691   -7.1280 C.ar    1  UNL1        0.0000
     47 C         -19.5000   60.8014   -7.1659 C.ar    1  UNL1        0.0000
@<TRIPOS>BOND
     1    26    27    1
     2    27    25    1
     3    25    15    1
     4    15    16   ar
     5    16    17   ar
     6    17    18   ar
     7    18    21    1
     8    21    22    2
     9    21    23    1
    10    18    19   ar
    11    19    20   ar
    12    20    14    1
    13    14    13    1
    14    13     7    1
    15     7     8    1
    16     8     9    1
    17     9    10    1
    18    10     1    1
    19     1     2   ar
    20     2     3   ar
    21     3     4   ar
    22     4    28    1
    23    28    29   am
    24    29    30    2
    25    29    32    1
    26    32    33   ar
    27    33    34   ar
    28    34    35   ar
    29    35    36   ar
    30    36    37   ar
    31    37    42    1
    32    42    43   ar
    33    43    44   ar
    34    44    45   ar
    35    45    46   ar
    36    46    47   ar
    37    37    38   ar
    38    38    39   ar
    39    39    40   ar
    40    40    41    1
    41     4     5   ar
    42     5     6   ar
    43    10    11    1
    44    11    12    1
    45    20    15   ar
    46    12     7    1
    47     6     1   ar
    48    40    32   ar
    49    39    34   ar
    50    47    42   ar
    51    23    24    1
    52    28    31    1
@<TRIPOS>MOLECULE
*****
 47 52 0 0 0
SMALL
GASTEIGER

@<TRIPOS>ATOM
      1 C         -25.7054   50.1991   -9.6444 C.ar    1  UNL1        0.1318
      2 C         -24.8989   50.3587   -8.5048 C.ar    1  UNL1        0.0356
      3 C         -23.9425   51.3746   -8.4727 C.ar    1  UNL1        0.0191
      4 C         -23.7830   52.2284   -9.5753 C.ar    1  UNL1        0.0702
      5 C         -24.6273   52.0569  -10.6794 C.ar    1  UNL1        0.1149
      6 N         -25.5512   51.0602  -10.6892 N.ar    1  UNL1       -0.2279
      7 C         -28.7508   47.0432   -9.5003 C.3     1  UNL1        0.0471
      8 C         -27.3520   46.8116  -10.1126 C.3     1  UNL1        0.0252
      9 C         -26.3109   47.7655   -9.5209 C.3     1  UNL1        0.0923
     10 N         -26.7117   49.1674   -9.7145 N.pl3   1  UNL1       -0.2932
     11 C         -28.1207   49.4943   -9.9877 C.3     1  UNL1        0.0923
     12 C         -29.0497   48.5433   -9.2246 C.3     1  UNL1        0.0252
     13 C         -29.8311   46.4097  -10.3999 C.3     1  UNL1        0.2054
     14 O         -29.5619   46.6596  -11.7808 O.3     1  UNL1       -0.4757
     15 C         -30.6698   47.1771  -13.8750 C.ar    1  UNL1        0.0413
     16 C         -31.3397   48.0864  -14.7054 C.ar    1  UNL1        0.0014
     17 C         -31.5830   49.3916  -14.2792 C.ar    1  UNL1        0.0064
     18 C         -31.1508   49.8209  -13.0154 C.ar    1  UNL1        0.0785
     19 C         -30.4879   48.9092  -12.1757 C.ar    1  UNL1        0.0431
     20 C         -30.2333   47.5877  -12.5984 C.ar    1  UNL1        0.1371
     21 C         -31.4140   51.2134  -12.5779 C.2     1  UNL1        0.3381
     22 O         -31.4813   52.1354  -13.4339 O.2     1  UNL1       -0.2451
     23 O         -31.5742   51.5418  -11.2321 O.3     1  UNL1       -0.4771
     24 H         -31.4253   50.8740  -10.4866 H       1  UNL1        0.2954
     25 C         -30.3931   45.7845  -14.3911 C.3     1  UNL1        0.1717
     26 C         -30.7617   44.5999  -16.3496 C.3     1  UNL1        0.1746
     27 O         -30.2438   45.7911  -15.7978 O.3     1  UNL1       -0.3462
     28 N         -22.8264   53.3020   -9.5690 N.am    1  UNL1       -0.2766
     29 C         -21.5529   53.2319   -8.9104 C.2     1  UNL1        0.2839
     30 O         -21.0029   52.1138   -8.7200 O.2     1  UNL1       -0.2665
     31 H         -23.0203   54.1368  -10.1659 H       1  UNL1        0.1553
     32 C         -20.8274   54.4539   -8.5211 C.ar    1  UNL1        0.1946
     33 O         -19.8025   54.4329   -7.6870 O.2     1  UNL1       -0.4492
     34 C         -19.3696   55.6623   -7.5494 C.ar    1  UNL1        0.1452
     35 C         -18.3028   56.1012   -6.7729 C.ar    1  UNL1        0.0375
     36 C         -18.0064   57.4755   -6.7751 C.ar    1  UNL1        0.0031
     37 C         -18.7761   58.3858   -7.5492 C.ar    1  UNL1        0.0002
     38 C         -19.8551   57.8970   -8.3243 C.ar    1  UNL1        0.0028
     39 C         -20.1205   56.5276   -8.2975 C.ar    1  UNL1        0.0337
     40 C         -21.0864   55.7689   -8.9279 C.ar    1  UNL1        0.0202
     41 C         -22.1673   56.2688   -9.8382 C.3     1  UNL1        0.0345
     42 C         -18.4531   59.8352   -7.5450 C.ar    1  UNL1        0.0000
     43 C         -19.4296   60.7851   -7.1891 C.ar    1  UNL1        0.0000
     44 C         -19.1226   62.1493   -7.1862 C.ar    1  UNL1        0.0000
     45 C         -17.8419   62.5805   -7.5383 C.ar    1  UNL1        0.0000
     46 C         -16.8647   61.6483   -7.8940 C.ar    1  UNL1        0.0000
     47 C         -17.1656   60.2827   -7.8977 C.ar    1  UNL1        0.0000
@<TRIPOS>BOND
     1    26    27    1
     2    27    25    1
     3    25    15    1
     4    15    16   ar
     5    16    17   ar
     6    17    18   ar
     7    18    21    1
     8    21    22    2
     9    21    23    1
    10    18    19   ar
    11    19    20   ar
    12    20    14    1
    13    14    13    1
    14    13     7    1
    15     7     8    1
    16     8     9    1
    17     9    10    1
    18    10     1    1
    19     1     2   ar
    20     2     3   ar
    21     3     4   ar
    22     4    28    1
    23    28    29   am
    24    29    30    2
    25    29    32    1
    26    32    33   ar
    27    33    34   ar
    28    34    35   ar
    29    35    36   ar
    30    36    37   ar
    31    37    42    1
    32    42    43   ar
    33    43    44   ar
    34    44    45   ar
    35    45    46   ar
    36    46    47   ar
    37    37    38   ar
    38    38    39   ar
    39    39    40   ar
    40    40    41    1
    41     4     5   ar
    42     5     6   ar
    43    10    11    1
    44    11    12    1
    45    20    15   ar
    46    12     7    1
    47     6     1   ar
    48    40    32   ar
    49    39    34   ar
    50    47    42   ar
    51    23    24    1
    52    28    31    1
