@<TRIPOS>MOLECULE
*****
 38 42 0 0 0
SMALL
GASTEIGER

@<TRIPOS>ATOM
      1 C          49.9495   11.7734  -21.7271 C.2     1  UNL1        0.2506
      2 O          51.0997   11.9852  -22.1985 O.2     1  UNL1       -0.2699
      3 N          48.8779   11.3629  -22.5997 N.am    1  UNL1       -0.2680
      4 C          47.9041   10.3648  -22.1451 C.3     1  UNL1        0.1412
      5 C          46.5883   11.0450  -21.7740 C.3     1  UNL1        0.2268
      6 O          46.3407   12.1894  -22.5886 O.3     1  UNL1       -0.4739
      7 C          46.3800   12.1422  -23.9837 C.ar    1  UNL1        0.1362
      8 C          45.1981   12.3968  -24.6855 C.ar    1  UNL1        0.0366
      9 C          45.1717   12.3350  -26.0784 C.ar    1  UNL1        0.0032
     10 C          46.3368   12.0292  -26.7965 C.ar    1  UNL1        0.0022
     11 C          47.5332   11.8050  -26.0950 C.ar    1  UNL1        0.0005
     12 C          47.5729   11.8516  -24.6902 C.ar    1  UNL1        0.0317
     13 C          48.9326   11.7316  -24.0216 C.3     1  UNL1        0.1236
     14 C          46.3150   11.9766  -28.2783 C.ar    1  UNL1        0.0290
     15 C          46.5772   10.7498  -28.9485 C.ar    1  UNL1        0.0039
     16 C          46.5650   10.6781  -30.3539 C.ar    1  UNL1        0.0208
     17 C          46.2864   11.8433  -31.0599 C.ar    1  UNL1        0.1008
     18 N          46.2173   12.0005  -32.3940 N.ar    1  UNL1       -0.2241
     19 C          45.9100   13.3179  -32.5273 C.ar    1  UNL1        0.1750
     20 N          45.7884   13.9669  -31.3446 N.ar    1  UNL1       -0.3332
     21 C          46.0307   13.0214  -30.4288 C.ar    1  UNL1        0.1034
     22 C          46.0327   13.1383  -29.0407 C.ar    1  UNL1        0.1570
     23 F          45.7353   14.3251  -28.4529 F       1  UNL1       -0.2026
     24 H          45.5584   14.9734  -31.1883 H       1  UNL1        0.1676
     25 C          49.0152   13.0424  -19.7543 C.ar    1  UNL1        0.0503
     26 C          48.7894   13.1047  -18.3638 C.ar    1  UNL1        0.0328
     27 C          49.2882   12.1137  -17.5096 C.ar    1  UNL1        0.1069
     28 C          50.0138   11.0428  -18.0384 C.ar    1  UNL1        0.0186
     29 C          50.2389   10.9592  -19.4117 C.ar    1  UNL1        0.0071
     30 C          49.7319   11.9386  -20.2777 C.ar    1  UNL1        0.0667
     31 S          48.9794   12.2094  -15.7787 S.O2    1  UNL1        0.0105
     32 C          50.5276   12.2097  -14.9043 C.3     1  UNL1        0.1816
     33 O          48.2243   13.4692  -15.4591 O.2     1  UNL1       -0.1686
     34 O          48.1548   11.0298  -15.3457 O.2     1  UNL1       -0.1686
     35 N          48.5599   14.0985  -20.6304 N.pl3   1  UNL1       -0.3325
     36 H          47.5349   14.2547  -20.7555 H       1  UNL1        0.1468
     37 C          48.7963   15.4249  -22.6821 C.3     1  UNL1        0.0229
     38 C          49.4411   15.0055  -21.3659 C.3     1  UNL1        0.0871
@<TRIPOS>BOND
     1    37    38    1
     2    38    35    1
     3    35    25    1
     4    25    26   ar
     5    26    27   ar
     6    27    31    1
     7    31    32    1
     8    31    33    2
     9    31    34    2
    10    27    28   ar
    11    28    29   ar
    12    29    30   ar
    13    30     1    1
    14     1     2    2
    15     1     3   am
    16     3     4    1
    17     4     5    1
    18     5     6    1
    19     6     7    1
    20     7     8   ar
    21     8     9   ar
    22     9    10   ar
    23    10    14    1
    24    14    15   ar
    25    15    16   ar
    26    16    17   ar
    27    17    18   ar
    28    18    19   ar
    29    19    20   ar
    30    20    21   ar
    31    21    22   ar
    32    22    23    1
    33    10    11   ar
    34    11    12   ar
    35    12    13    1
    36    30    25   ar
    37    13     3    1
    38    12     7   ar
    39    22    14   ar
    40    21    17   ar
    41    35    36    1
    42    20    24    1
@<TRIPOS>MOLECULE
*****
 38 42 0 0 0
SMALL
GASTEIGER

@<TRIPOS>ATOM
      1 C          46.7018   12.3000  -20.4423 C.2     1  UNL1        0.2506
      2 O          45.4720   12.0318  -20.3663 O.2     1  UNL1       -0.2699
      3 N          47.2806   12.6725  -21.7090 N.am    1  UNL1       -0.2680
      4 C          48.3056   13.7200  -21.7666 C.3     1  UNL1        0.1412
      5 C          49.6858   13.0951  -21.9568 C.3     1  UNL1        0.2268
      6 O          49.6196   11.9031  -22.7374 O.3     1  UNL1       -0.4739
      7 C          48.9898   11.8538  -23.9829 C.ar    1  UNL1        0.1362
      8 C          49.7731   11.5771  -25.1072 C.ar    1  UNL1        0.0366
      9 C          49.2030   11.5439  -26.3794 C.ar    1  UNL1        0.0032
     10 C          47.8299   11.7749  -26.5471 C.ar    1  UNL1        0.0022
     11 C          47.0349   12.0209  -25.4152 C.ar    1  UNL1        0.0005
     12 C          47.5973   12.0699  -24.1274 C.ar    1  UNL1        0.0317
     13 C          46.6457   12.2063  -22.9500 C.3     1  UNL1        0.1236
     14 C          47.2184   11.7263  -27.8971 C.ar    1  UNL1        0.0290
     15 C          47.1023   10.4835  -28.5790 C.ar    1  UNL1        0.0039
     16 C          46.5285   10.4151  -29.8621 C.ar    1  UNL1        0.0208
     17 C          46.0793   11.5998  -30.4353 C.ar    1  UNL1        0.1008
     18 N          45.4986   11.7640  -31.6375 N.ar    1  UNL1       -0.2241
     19 C          45.2615   13.1017  -31.6781 C.ar    1  UNL1        0.1750
     20 N          45.6671   13.7567  -30.5639 N.ar    1  UNL1       -0.3332
     21 C          46.1824   12.7935  -29.7904 C.ar    1  UNL1        0.1034
     22 C          46.7433   12.9079  -28.5204 C.ar    1  UNL1        0.1570
     23 F          46.7916   14.1137  -27.8991 F       1  UNL1       -0.2026
     24 H          45.5926   14.7781  -30.3598 H       1  UNL1        0.1676
     25 C          48.3863   11.1486  -18.9552 C.ar    1  UNL1        0.0503
     26 C          49.1888   11.1853  -17.7962 C.ar    1  UNL1        0.0328
     27 C          49.1134   12.2614  -16.9035 C.ar    1  UNL1        0.1069
     28 C          48.2378   13.3190  -17.1642 C.ar    1  UNL1        0.0186
     29 C          47.4436   13.3049  -18.3099 C.ar    1  UNL1        0.0071
     30 C          47.5215   12.2391  -19.2177 C.ar    1  UNL1        0.0667
     31 S          50.1371   12.2877  -15.4712 S.O2    1  UNL1        0.0105
     32 C          49.5432   13.5302  -14.3466 C.3     1  UNL1        0.1816
     33 O          50.1098   10.9460  -14.7939 O.2     1  UNL1       -0.1686
     34 O          51.5532   12.5994  -15.8668 O.2     1  UNL1       -0.1686
     35 N          48.4127   10.0080  -19.8431 N.pl3   1  UNL1       -0.3325
     36 H          47.5172    9.5333  -20.0948 H       1  UNL1        0.1468
     37 C          49.3272    8.9355  -21.8526 C.3     1  UNL1        0.0229
     38 C          49.6236    9.4561  -20.4507 C.3     1  UNL1        0.0871
@<TRIPOS>BOND
     1    37    38    1
     2    38    35    1
     3    35    25    1
     4    25    26   ar
     5    26    27   ar
     6    27    31    1
     7    31    32    1
     8    31    33    2
     9    31    34    2
    10    27    28   ar
    11    28    29   ar
    12    29    30   ar
    13    30     1    1
    14     1     2    2
    15     1     3   am
    16     3     4    1
    17     4     5    1
    18     5     6    1
    19     6     7    1
    20     7     8   ar
    21     8     9   ar
    22     9    10   ar
    23    10    14    1
    24    14    15   ar
    25    15    16   ar
    26    16    17   ar
    27    17    18   ar
    28    18    19   ar
    29    19    20   ar
    30    20    21   ar
    31    21    22   ar
    32    22    23    1
    33    10    11   ar
    34    11    12   ar
    35    12    13    1
    36    30    25   ar
    37    13     3    1
    38    12     7   ar
    39    22    14   ar
    40    21    17   ar
    41    35    36    1
    42    20    24    1
@<TRIPOS>MOLECULE
*****
 38 42 0 0 0
SMALL
GASTEIGER

@<TRIPOS>ATOM
      1 C          49.5712   13.4925  -21.4444 C.2     1  UNL1        0.2506
      2 O          50.3030   14.4746  -21.7441 O.2     1  UNL1       -0.2699
      3 N          48.9031   12.7488  -22.4831 N.am    1  UNL1       -0.2680
      4 C          48.7898   11.2900  -22.3828 C.3     1  UNL1        0.1412
      5 C          47.3726   10.8999  -21.9689 C.3     1  UNL1        0.2268
      6 O          46.4049   11.8110  -22.4864 O.3     1  UNL1       -0.4739
      7 C          46.3405   12.1518  -23.8391 C.ar    1  UNL1        0.1362
      8 C          45.1937   11.7956  -24.5548 C.ar    1  UNL1        0.0366
      9 C          45.0869   12.0846  -25.9149 C.ar    1  UNL1        0.0032
     10 C          46.1255   12.7504  -26.5818 C.ar    1  UNL1        0.0022
     11 C          47.2649   13.1382  -25.8574 C.ar    1  UNL1        0.0005
     12 C          47.3927   12.8430  -24.4886 C.ar    1  UNL1        0.0317
     13 C          48.5938   13.4172  -23.7551 C.3     1  UNL1        0.1236
     14 C          46.0086   13.0714  -28.0247 C.ar    1  UNL1        0.0290
     15 C          45.7642   14.4109  -28.4359 C.ar    1  UNL1        0.0039
     16 C          45.6464   14.7373  -29.7997 C.ar    1  UNL1        0.0208
     17 C          45.7793   13.7087  -30.7261 C.ar    1  UNL1        0.1008
     18 N          45.7098   13.7945  -32.0667 N.ar    1  UNL1       -0.2241
     19 C          45.9161   12.5107  -32.4626 C.ar    1  UNL1        0.1750
     20 N          46.1077   11.6517  -31.4329 N.ar    1  UNL1       -0.3332
     21 C          46.0166   12.4245  -30.3439 C.ar    1  UNL1        0.1034
     22 C          46.1400   12.0565  -29.0060 C.ar    1  UNL1        0.1570
     23 F          46.4141   10.7696  -28.6722 F       1  UNL1       -0.2026
     24 H          46.2854   10.6239  -31.4822 H       1  UNL1        0.1676
     25 C          50.5338   12.6771  -19.2573 C.ar    1  UNL1        0.0503
     26 C          50.3383   12.3953  -17.8895 C.ar    1  UNL1        0.0328
     27 C          49.0721   12.5169  -17.3044 C.ar    1  UNL1        0.1069
     28 C          47.9859   12.9298  -18.0808 C.ar    1  UNL1        0.0186
     29 C          48.1617   13.2221  -19.4324 C.ar    1  UNL1        0.0071
     30 C          49.4281   13.1172  -20.0252 C.ar    1  UNL1        0.0667
     31 S          48.8595   12.1719  -15.5909 S.O2    1  UNL1        0.0105
     32 C          50.4500   11.9004  -14.8440 C.3     1  UNL1        0.1816
     33 O          48.1796   13.3285  -14.9131 O.2     1  UNL1       -0.1686
     34 O          48.0067   10.9456  -15.4235 O.2     1  UNL1       -0.1686
     35 N          51.8250   12.4875  -19.8792 N.pl3   1  UNL1       -0.3325
     36 H          52.0183   11.6033  -20.4004 H       1  UNL1        0.1468
     37 C          53.5055   13.6411  -21.2467 C.3     1  UNL1        0.0229
     38 C          52.9112   13.4671  -19.8537 C.3     1  UNL1        0.0871
@<TRIPOS>BOND
     1    37    38    1
     2    38    35    1
     3    35    25    1
     4    25    26   ar
     5    26    27   ar
     6    27    31    1
     7    31    32    1
     8    31    33    2
     9    31    34    2
    10    27    28   ar
    11    28    29   ar
    12    29    30   ar
    13    30     1    1
    14     1     2    2
    15     1     3   am
    16     3     4    1
    17     4     5    1
    18     5     6    1
    19     6     7    1
    20     7     8   ar
    21     8     9   ar
    22     9    10   ar
    23    10    14    1
    24    14    15   ar
    25    15    16   ar
    26    16    17   ar
    27    17    18   ar
    28    18    19   ar
    29    19    20   ar
    30    20    21   ar
    31    21    22   ar
    32    22    23    1
    33    10    11   ar
    34    11    12   ar
    35    12    13    1
    36    30    25   ar
    37    13     3    1
    38    12     7   ar
    39    22    14   ar
    40    21    17   ar
    41    35    36    1
    42    20    24    1
@<TRIPOS>MOLECULE
*****
 38 42 0 0 0
SMALL
GASTEIGER

@<TRIPOS>ATOM
      1 C          48.5407    9.8142  -21.3997 C.2     1  UNL1        0.2506
      2 O          48.0143    8.6690  -21.4392 O.2     1  UNL1       -0.2699
      3 N          49.0265   10.4256  -22.6115 N.am    1  UNL1       -0.2680
      4 C          48.8478   11.8651  -22.8286 C.3     1  UNL1        0.1412
      5 C          50.1661   12.5996  -22.5954 C.3     1  UNL1        0.2268
      6 O          51.2863   11.7991  -22.9682 O.3     1  UNL1       -0.4739
      7 C          51.3914   11.1889  -24.2199 C.ar    1  UNL1        0.1362
      8 C          52.4298   11.5917  -25.0646 C.ar    1  UNL1        0.0366
      9 C          52.5660   11.0376  -26.3370 C.ar    1  UNL1        0.0032
     10 C          51.6688   10.0561  -26.7824 C.ar    1  UNL1        0.0022
     11 C          50.6440    9.6262  -25.9229 C.ar    1  UNL1        0.0005
     12 C          50.4863   10.1843  -24.6420 C.ar    1  UNL1        0.0317
     13 C          49.4386    9.5663  -23.7306 C.3     1  UNL1        0.1236
     14 C          51.8195    9.4549  -28.1295 C.ar    1  UNL1        0.0290
     15 C          52.9820    9.7280  -28.9021 C.ar    1  UNL1        0.0039
     16 C          53.1440    9.1708  -30.1842 C.ar    1  UNL1        0.0208
     17 C          52.1329    8.3460  -30.6649 C.ar    1  UNL1        0.1008
     18 N          52.0833    7.7092  -31.8487 N.ar    1  UNL1       -0.2241
     19 C          50.8958    7.0506  -31.7878 C.ar    1  UNL1        0.1750
     20 N          50.2237    7.2539  -30.6295 N.ar    1  UNL1       -0.3332
     21 C          51.0183    8.0753  -29.9327 C.ar    1  UNL1        0.1034
     22 C          50.8163    8.6050  -28.6603 C.ar    1  UNL1        0.1570
     23 F          49.7065    8.2780  -27.9505 F       1  UNL1       -0.2026
     24 H          49.2988    6.8586  -30.3490 H       1  UNL1        0.1676
     25 C          47.4957   11.0855  -19.4849 C.ar    1  UNL1        0.0503
     26 C          47.6442   11.6816  -18.2156 C.ar    1  UNL1        0.0328
     27 C          48.8950   11.7352  -17.5886 C.ar    1  UNL1        0.1069
     28 C          50.0127   11.1854  -18.2222 C.ar    1  UNL1        0.0186
     29 C          49.8836   10.5833  -19.4729 C.ar    1  UNL1        0.0071
     30 C          48.6332   10.5116  -20.1034 C.ar    1  UNL1        0.0667
     31 S          49.0489   12.4734  -15.9975 S.O2    1  UNL1        0.0105
     32 C          50.7635   12.5064  -15.5279 C.3     1  UNL1        0.1816
     33 O          48.5112   13.8767  -16.0266 O.2     1  UNL1       -0.1686
     34 O          48.2649   11.6773  -14.9921 O.2     1  UNL1       -0.1686
     35 N          46.2194   11.0887  -20.1640 N.pl3   1  UNL1       -0.3325
     36 H          45.9388   10.2585  -20.7322 H       1  UNL1        0.1468
     37 C          44.1385   11.8602  -19.1156 C.3     1  UNL1        0.0229
     38 C          45.2507   12.1834  -20.1069 C.3     1  UNL1        0.0871
@<TRIPOS>BOND
     1    37    38    1
     2    38    35    1
     3    35    25    1
     4    25    26   ar
     5    26    27   ar
     6    27    31    1
     7    31    32    1
     8    31    33    2
     9    31    34    2
    10    27    28   ar
    11    28    29   ar
    12    29    30   ar
    13    30     1    1
    14     1     2    2
    15     1     3   am
    16     3     4    1
    17     4     5    1
    18     5     6    1
    19     6     7    1
    20     7     8   ar
    21     8     9   ar
    22     9    10   ar
    23    10    14    1
    24    14    15   ar
    25    15    16   ar
    26    16    17   ar
    27    17    18   ar
    28    18    19   ar
    29    19    20   ar
    30    20    21   ar
    31    21    22   ar
    32    22    23    1
    33    10    11   ar
    34    11    12   ar
    35    12    13    1
    36    30    25   ar
    37    13     3    1
    38    12     7   ar
    39    22    14   ar
    40    21    17   ar
    41    35    36    1
    42    20    24    1
