@<TRIPOS>MOLECULE
*****
 47 52 0 0 0
SMALL
GASTEIGER

@<TRIPOS>ATOM
      1 O         -26.6552   46.5513   -2.5639 O.2     1  UNL1       -0.2701
      2 C         -27.1393   47.6995   -2.7545 C.2     1  UNL1        0.2483
      3 N         -27.8955   48.3130   -1.7040 N.am    1  UNL1       -0.2945
      4 H         -27.5030   49.1604   -1.2358 H       1  UNL1        0.1501
      5 C         -26.9684   48.3697   -4.0715 C.ar    1  UNL1        0.0808
      6 C         -27.2311   47.6523   -5.2529 C.ar    1  UNL1        0.0080
      7 C         -27.1748   48.2806   -6.4991 C.ar    1  UNL1        0.0148
      8 C         -26.8522   49.6424   -6.5989 C.ar    1  UNL1        0.0502
      9 C         -26.5700   50.3582   -5.4239 C.ar    1  UNL1        0.0443
     10 C         -26.6131   49.7320   -4.1756 C.ar    1  UNL1        0.1457
     11 F         -26.3304   50.4783   -3.0794 F       1  UNL1       -0.2040
     12 N         -26.8731   50.3049   -7.8818 N.pl3   1  UNL1       -0.3040
     13 C         -26.7845   49.5439   -9.1371 C.3     1  UNL1        0.1122
     14 C         -25.4779   49.9037   -9.8549 C.3     1  UNL1        0.1122
     15 N         -25.2088   51.3505   -9.7751 N.pl3   1  UNL1       -0.3040
     16 C         -26.2763   52.2490   -9.3080 C.3     1  UNL1        0.1122
     17 C         -26.7829   51.7750   -7.9391 C.3     1  UNL1        0.1122
     18 C         -23.8748   51.8406  -10.0264 C.ar    1  UNL1        0.0488
     19 C         -23.5242   52.3538  -11.2876 C.ar    1  UNL1        0.0154
     20 C         -22.2435   52.8629  -11.5145 C.ar    1  UNL1        0.0135
     21 C         -21.2944   52.8698  -10.4882 C.ar    1  UNL1        0.0683
     22 CL        -19.6948   53.5246  -10.8115 Cl      1  UNL1       -0.0814
     23 C         -21.6329   52.3628   -9.2232 C.ar    1  UNL1        0.0694
     24 CL        -20.4701   52.3552   -7.9040 Cl      1  UNL1       -0.0813
     25 C         -22.9175   51.8546   -8.9970 C.ar    1  UNL1        0.0268
     26 C         -29.2615   47.8943   -1.3781 C.3     1  UNL1        0.1535
     27 C         -29.3999   47.7111    0.1177 C.2     1  UNL1        0.2443
     28 O         -29.7609   46.5992    0.5918 O.2     1  UNL1       -0.2730
     29 N         -29.1629   48.8268    0.9903 N.am    1  UNL1       -0.2825
     30 H         -28.5505   49.5955    0.6344 H       1  UNL1        0.1549
     31 C         -29.7289   48.9723    2.3065 C.ar    1  UNL1        0.0535
     32 C         -29.0769   48.4871    3.4553 C.ar    1  UNL1        0.0353
     33 C         -29.6939   48.6089    4.7023 C.ar    1  UNL1        0.1002
     34 N         -30.9222   49.1805    4.8039 N.ar    1  UNL1       -0.2422
     35 C         -31.5838   49.6434    3.7115 C.ar    1  UNL1        0.1002
     36 C         -31.0027   49.5422    2.4452 C.ar    1  UNL1        0.0353
     37 C         -30.2812   48.8888   -1.9690 C.3     1  UNL1        0.0569
     38 C         -30.5043   48.6472   -3.4350 C.ar    1  UNL1       -0.0017
     39 C         -30.7829   47.4272   -4.0447 C.ar    1  UNL1        0.0681
     40 N         -30.8677   47.5784   -5.3861 N.ar    1  UNL1       -0.3523
     41 C         -30.6386   48.8807   -5.6288 C.ar    1  UNL1        0.0563
     42 C         -30.6098   49.5171   -6.8690 C.ar    1  UNL1        0.0170
     43 C         -30.3375   50.8972   -6.8936 C.ar    1  UNL1        0.0015
     44 C         -30.1010   51.6018   -5.6921 C.ar    1  UNL1        0.0001
     45 C         -30.1353   50.9330   -4.4549 C.ar    1  UNL1        0.0012
     46 C         -30.4099   49.5651   -4.4627 C.ar    1  UNL1        0.0131
     47 H         -31.0629   46.8305   -6.0882 H       1  UNL1        0.1660
@<TRIPOS>BOND
     1     1     2    2
     2     2     3   am
     3     3    26    1
     4    26    37    1
     5    37    38    1
     6    38    39   ar
     7    39    40   ar
     8    40    41   ar
     9    41    42   ar
    10    42    43   ar
    11    43    44   ar
    12    44    45   ar
    13    45    46   ar
    14    26    27    1
    15    27    28    2
    16    27    29   am
    17    29    31    1
    18    31    32   ar
    19    32    33   ar
    20    33    34   ar
    21    34    35   ar
    22    35    36   ar
    23     2     5    1
    24     5     6   ar
    25     6     7   ar
    26     7     8   ar
    27     8    12    1
    28    12    13    1
    29    13    14    1
    30    14    15    1
    31    15    18    1
    32    18    19   ar
    33    19    20   ar
    34    20    21   ar
    35    21    22    1
    36    21    23   ar
    37    23    24    1
    38    23    25   ar
    39    15    16    1
    40    16    17    1
    41     8     9   ar
    42     9    10   ar
    43    10    11    1
    44    46    38   ar
    45    36    31   ar
    46    10     5   ar
    47    46    41   ar
    48    17    12    1
    49    25    18   ar
    50     3     4    1
    51    40    47    1
    52    29    30    1
@<TRIPOS>MOLECULE
*****
 47 52 0 0 0
SMALL
GASTEIGER

@<TRIPOS>ATOM
      1 O         -24.7287   48.5459   -7.5684 O.2     1  UNL1       -0.2701
      2 C         -25.9401   48.8835   -7.6550 C.2     1  UNL1        0.2483
      3 N         -26.3424   49.7425   -8.7282 N.am    1  UNL1       -0.2945
      4 H         -26.9698   49.3559   -9.4686 H       1  UNL1        0.1501
      5 C         -26.9127   48.4363   -6.6220 C.ar    1  UNL1        0.0808
      6 C         -27.8226   47.4074   -6.9268 C.ar    1  UNL1        0.0080
      7 C         -28.6811   46.8986   -5.9495 C.ar    1  UNL1        0.0148
      8 C         -28.6554   47.4058   -4.6416 C.ar    1  UNL1        0.0502
      9 C         -27.7625   48.4464   -4.3374 C.ar    1  UNL1        0.0443
     10 C         -26.9098   48.9673   -5.3140 C.ar    1  UNL1        0.1457
     11 F         -26.0713   49.9712   -4.9566 F       1  UNL1       -0.2040
     12 N         -29.4887   46.8225   -3.6166 N.pl3   1  UNL1       -0.3040
     13 C         -30.9557   46.8899   -3.6934 C.3     1  UNL1        0.1122
     14 C         -31.4837   47.7424   -2.5331 C.3     1  UNL1        0.1122
     15 N         -30.7602   47.4462   -1.2838 N.pl3   1  UNL1       -0.3040
     16 C         -29.8872   46.2630   -1.2295 C.3     1  UNL1        0.1122
     17 C         -28.8684   46.3247   -2.3756 C.3     1  UNL1        0.1122
     18 C         -30.8157   48.3861   -0.1900 C.ar    1  UNL1        0.0488
     19 C         -31.4927   49.6105   -0.3291 C.ar    1  UNL1        0.0154
     20 C         -31.5770   50.4997    0.7448 C.ar    1  UNL1        0.0135
     21 C         -30.9899   50.1814    1.9729 C.ar    1  UNL1        0.0683
     22 CL        -31.1229   51.3243    3.3024 Cl      1  UNL1       -0.0814
     23 C         -30.3135   48.9603    2.1257 C.ar    1  UNL1        0.0694
     24 CL        -29.5634   48.5197    3.6539 Cl      1  UNL1       -0.0813
     25 C         -30.2314   48.0695    1.0489 C.ar    1  UNL1        0.0268
     26 C         -26.0399   51.1764   -8.7360 C.3     1  UNL1        0.1535
     27 C         -25.1245   51.5023   -9.8961 C.2     1  UNL1        0.2443
     28 O         -25.2586   50.9057  -10.9994 O.2     1  UNL1       -0.2730
     29 N         -24.0715   52.4621   -9.7161 N.am    1  UNL1       -0.2825
     30 H         -24.1899   53.1710   -8.9572 H       1  UNL1        0.1549
     31 C         -22.8565   52.5000  -10.4884 C.ar    1  UNL1        0.0535
     32 C         -21.9318   51.4394  -10.4742 C.ar    1  UNL1        0.0353
     33 C         -20.7445   51.5491  -11.2014 C.ar    1  UNL1        0.1002
     34 N         -20.4779   52.6786  -11.9078 N.ar    1  UNL1       -0.2422
     35 C         -21.3430   53.7257  -11.9277 C.ar    1  UNL1        0.1002
     36 C         -22.5425   53.6576  -11.2149 C.ar    1  UNL1        0.0353
     37 C         -27.3447   51.9983   -8.7373 C.3     1  UNL1        0.0569
     38 C         -28.0946   51.8484   -7.4440 C.ar    1  UNL1       -0.0017
     39 C         -27.7593   52.4140   -6.2171 C.ar    1  UNL1        0.0681
     40 N         -28.6309   52.0189   -5.2613 N.ar    1  UNL1       -0.3523
     41 C         -29.5087   51.2043   -5.8722 C.ar    1  UNL1        0.0563
     42 C         -30.5889   50.5393   -5.2936 C.ar    1  UNL1        0.0170
     43 C         -31.3777   49.7208   -6.1227 C.ar    1  UNL1        0.0015
     44 C         -31.0717   49.5855   -7.4953 C.ar    1  UNL1        0.0001
     45 C         -29.9745   50.2680   -8.0516 C.ar    1  UNL1        0.0012
     46 C         -29.2125   51.0734   -7.2048 C.ar    1  UNL1        0.0131
     47 H         -28.6160   52.2875   -4.2523 H       1  UNL1        0.1660
@<TRIPOS>BOND
     1     1     2    2
     2     2     3   am
     3     3    26    1
     4    26    37    1
     5    37    38    1
     6    38    39   ar
     7    39    40   ar
     8    40    41   ar
     9    41    42   ar
    10    42    43   ar
    11    43    44   ar
    12    44    45   ar
    13    45    46   ar
    14    26    27    1
    15    27    28    2
    16    27    29   am
    17    29    31    1
    18    31    32   ar
    19    32    33   ar
    20    33    34   ar
    21    34    35   ar
    22    35    36   ar
    23     2     5    1
    24     5     6   ar
    25     6     7   ar
    26     7     8   ar
    27     8    12    1
    28    12    13    1
    29    13    14    1
    30    14    15    1
    31    15    18    1
    32    18    19   ar
    33    19    20   ar
    34    20    21   ar
    35    21    22    1
    36    21    23   ar
    37    23    24    1
    38    23    25   ar
    39    15    16    1
    40    16    17    1
    41     8     9   ar
    42     9    10   ar
    43    10    11    1
    44    46    38   ar
    45    36    31   ar
    46    10     5   ar
    47    46    41   ar
    48    17    12    1
    49    25    18   ar
    50     3     4    1
    51    40    47    1
    52    29    30    1
@<TRIPOS>MOLECULE
*****
 47 52 0 0 0
SMALL
GASTEIGER

@<TRIPOS>ATOM
      1 O         -23.6671   50.6457  -11.6804 O.2     1  UNL1       -0.2701
      2 C         -23.8691   51.6779  -10.9855 C.2     1  UNL1        0.2483
      3 N         -23.2292   52.9018  -11.3649 N.am    1  UNL1       -0.2945
      4 H         -23.8227   53.6896  -11.7091 H       1  UNL1        0.1501
      5 C         -24.7141   51.5985   -9.7637 C.ar    1  UNL1        0.0808
      6 C         -26.0874   51.8912   -9.8512 C.ar    1  UNL1        0.0080
      7 C         -26.9251   51.7312   -8.7450 C.ar    1  UNL1        0.0148
      8 C         -26.4128   51.2765   -7.5205 C.ar    1  UNL1        0.0502
      9 C         -25.0389   51.0016   -7.4227 C.ar    1  UNL1        0.0443
     10 C         -24.1941   51.1713   -8.5227 C.ar    1  UNL1        0.1457
     11 F         -22.8776   50.8887   -8.3633 F       1  UNL1       -0.2040
     12 N         -27.2964   51.0375   -6.4037 N.pl3   1  UNL1       -0.3040
     13 C         -27.0641   51.6685   -5.0959 C.3     1  UNL1        0.1122
     14 C         -26.7437   50.5831   -4.0611 C.3     1  UNL1        0.1122
     15 N         -27.6127   49.4061   -4.2390 N.pl3   1  UNL1       -0.3040
     16 C         -28.7823   49.5116   -5.1255 C.3     1  UNL1        0.1122
     17 C         -28.3333   49.9954   -6.5110 C.3     1  UNL1        0.1122
     18 C         -27.2301   48.1445   -3.6518 C.ar    1  UNL1        0.0488
     19 C         -25.9228   47.6493   -3.8028 C.ar    1  UNL1        0.0154
     20 C         -25.5464   46.4469   -3.1998 C.ar    1  UNL1        0.0135
     21 C         -26.4659   45.7216   -2.4365 C.ar    1  UNL1        0.0683
     22 CL        -25.9522   44.2154   -1.6886 Cl      1  UNL1       -0.0814
     23 C         -27.7738   46.2068   -2.2756 C.ar    1  UNL1        0.0694
     24 CL        -28.9606   45.3273   -1.3215 Cl      1  UNL1       -0.0813
     25 C         -28.1489   47.4130   -2.8791 C.ar    1  UNL1        0.0268
     26 C         -21.8018   53.1407  -11.1344 C.3     1  UNL1        0.1535
     27 C         -21.6233   54.2609  -10.1326 C.2     1  UNL1        0.2443
     28 O         -22.3868   55.2647  -10.1581 O.2     1  UNL1       -0.2730
     29 N         -20.5478   54.1940   -9.1834 N.am    1  UNL1       -0.2825
     30 H         -20.1692   53.2482   -8.9497 H       1  UNL1        0.1549
     31 C         -19.9392   55.3368   -8.5527 C.ar    1  UNL1        0.0535
     32 C         -20.1755   56.6491   -9.0023 C.ar    1  UNL1        0.0353
     33 C         -19.5197   57.7179   -8.3874 C.ar    1  UNL1        0.1002
     34 N         -18.6487   57.4907   -7.3698 N.ar    1  UNL1       -0.2422
     35 C         -18.3873   56.2342   -6.9245 C.ar    1  UNL1        0.1002
     36 C         -19.0221   55.1366   -7.5110 C.ar    1  UNL1        0.0353
     37 C         -21.1007   51.8316  -10.7189 C.3     1  UNL1        0.0569
     38 C         -19.6256   51.8804  -11.0001 C.ar    1  UNL1       -0.0017
     39 C         -19.0187   51.9579  -12.2505 C.ar    1  UNL1        0.0681
     40 N         -17.6723   51.9267  -12.1243 N.ar    1  UNL1       -0.3523
     41 C         -17.4245   51.8235  -10.8071 C.ar    1  UNL1        0.0563
     42 C         -16.1793   51.7448  -10.1849 C.ar    1  UNL1        0.0170
     43 C         -16.1509   51.6291   -8.7830 C.ar    1  UNL1        0.0015
     44 C         -17.3540   51.5933   -8.0431 C.ar    1  UNL1        0.0001
     45 C         -18.5964   51.6736   -8.6981 C.ar    1  UNL1        0.0012
     46 C         -18.5920   51.7896  -10.0885 C.ar    1  UNL1        0.0131
     47 H         -16.9712   51.9659  -12.8972 H       1  UNL1        0.1660
@<TRIPOS>BOND
     1     1     2    2
     2     2     3   am
     3     3    26    1
     4    26    37    1
     5    37    38    1
     6    38    39   ar
     7    39    40   ar
     8    40    41   ar
     9    41    42   ar
    10    42    43   ar
    11    43    44   ar
    12    44    45   ar
    13    45    46   ar
    14    26    27    1
    15    27    28    2
    16    27    29   am
    17    29    31    1
    18    31    32   ar
    19    32    33   ar
    20    33    34   ar
    21    34    35   ar
    22    35    36   ar
    23     2     5    1
    24     5     6   ar
    25     6     7   ar
    26     7     8   ar
    27     8    12    1
    28    12    13    1
    29    13    14    1
    30    14    15    1
    31    15    18    1
    32    18    19   ar
    33    19    20   ar
    34    20    21   ar
    35    21    22    1
    36    21    23   ar
    37    23    24    1
    38    23    25   ar
    39    15    16    1
    40    16    17    1
    41     8     9   ar
    42     9    10   ar
    43    10    11    1
    44    46    38   ar
    45    36    31   ar
    46    10     5   ar
    47    46    41   ar
    48    17    12    1
    49    25    18   ar
    50     3     4    1
    51    40    47    1
    52    29    30    1
@<TRIPOS>MOLECULE
*****
 47 52 0 0 0
SMALL
GASTEIGER

@<TRIPOS>ATOM
      1 O         -28.2422   51.0749   -8.2479 O.2     1  UNL1       -0.2701
      2 C         -27.5028   50.2195   -8.8052 C.2     1  UNL1        0.2483
      3 N         -27.9572   48.8637   -8.8887 N.am    1  UNL1       -0.2945
      4 H         -28.1834   48.4702   -9.8296 H       1  UNL1        0.1501
      5 C         -26.1608   50.6134   -9.3120 C.ar    1  UNL1        0.0808
      6 C         -25.9295   50.6558  -10.6991 C.ar    1  UNL1        0.0080
      7 C         -24.7125   51.1152  -11.2079 C.ar    1  UNL1        0.0148
      8 C         -23.6926   51.5425  -10.3443 C.ar    1  UNL1        0.0502
      9 C         -23.9115   51.4836   -8.9582 C.ar    1  UNL1        0.0443
     10 C         -25.1225   51.0137   -8.4434 C.ar    1  UNL1        0.1457
     11 F         -25.2714   50.9819   -7.0960 F       1  UNL1       -0.2040
     12 N         -22.4674   52.0903  -10.8772 N.pl3   1  UNL1       -0.3040
     13 C         -21.1798   51.4033  -10.6955 C.3     1  UNL1        0.1122
     14 C         -20.2637   52.2699   -9.8227 C.3     1  UNL1        0.1122
     15 N         -20.3668   53.6926  -10.1932 N.pl3   1  UNL1       -0.3040
     16 C         -21.0569   54.0556  -11.4410 C.3     1  UNL1        0.1122
     17 C         -22.4680   53.4523  -11.4406 C.3     1  UNL1        0.1122
     18 C         -19.9110   54.7029   -9.2689 C.ar    1  UNL1        0.0488
     19 C         -19.3130   54.3423   -8.0485 C.ar    1  UNL1        0.0154
     20 C         -18.8382   55.3232   -7.1748 C.ar    1  UNL1        0.0135
     21 C         -18.9505   56.6770   -7.5049 C.ar    1  UNL1        0.0683
     22 CL        -18.3353   57.8816   -6.3814 Cl      1  UNL1       -0.0814
     23 C         -19.5431   57.0502   -8.7221 C.ar    1  UNL1        0.0694
     24 CL        -19.7016   58.7414   -9.1770 Cl      1  UNL1       -0.0813
     25 C         -20.0168   56.0657   -9.5973 C.ar    1  UNL1        0.0268
     26 C         -27.9593   47.9680   -7.7289 C.3     1  UNL1        0.1535
     27 C         -26.9149   48.4177   -6.7303 C.2     1  UNL1        0.2443
     28 O         -25.7862   47.8556   -6.6936 O.2     1  UNL1       -0.2730
     29 N         -27.2360   49.4574   -5.7932 N.am    1  UNL1       -0.2825
     30 H         -27.9987   50.1228   -6.0541 H       1  UNL1        0.1549
     31 C         -26.6008   49.6311   -4.5125 C.ar    1  UNL1        0.0535
     32 C         -26.6146   48.6223   -3.5315 C.ar    1  UNL1        0.0353
     33 C         -26.0275   48.8616   -2.2870 C.ar    1  UNL1        0.1002
     34 N         -25.4581   50.0660   -2.0206 N.ar    1  UNL1       -0.2422
     35 C         -25.4435   51.0650   -2.9410 C.ar    1  UNL1        0.1002
     36 C         -26.0188   50.8677   -4.1986 C.ar    1  UNL1        0.0353
     37 C         -29.3768   47.8722   -7.1295 C.3     1  UNL1        0.0569
     38 C         -29.3806   47.1069   -5.8366 C.ar    1  UNL1       -0.0017
     39 C         -29.0481   45.7666   -5.6617 C.ar    1  UNL1        0.0681
     40 N         -29.2187   45.4026   -4.3702 N.ar    1  UNL1       -0.3523
     41 C         -29.6619   46.4987   -3.7304 C.ar    1  UNL1        0.0563
     42 C         -29.9919   46.6141   -2.3807 C.ar    1  UNL1        0.0170
     43 C         -30.4501   47.8621   -1.9203 C.ar    1  UNL1        0.0015
     44 C         -30.5685   48.9538   -2.8093 C.ar    1  UNL1        0.0001
     45 C         -30.2292   48.8076   -4.1667 C.ar    1  UNL1        0.0012
     46 C         -29.7762   47.5588   -4.5929 C.ar    1  UNL1        0.0131
     47 H         -29.0480   44.4578   -3.9595 H       1  UNL1        0.1660
@<TRIPOS>BOND
     1     1     2    2
     2     2     3   am
     3     3    26    1
     4    26    37    1
     5    37    38    1
     6    38    39   ar
     7    39    40   ar
     8    40    41   ar
     9    41    42   ar
    10    42    43   ar
    11    43    44   ar
    12    44    45   ar
    13    45    46   ar
    14    26    27    1
    15    27    28    2
    16    27    29   am
    17    29    31    1
    18    31    32   ar
    19    32    33   ar
    20    33    34   ar
    21    34    35   ar
    22    35    36   ar
    23     2     5    1
    24     5     6   ar
    25     6     7   ar
    26     7     8   ar
    27     8    12    1
    28    12    13    1
    29    13    14    1
    30    14    15    1
    31    15    18    1
    32    18    19   ar
    33    19    20   ar
    34    20    21   ar
    35    21    22    1
    36    21    23   ar
    37    23    24    1
    38    23    25   ar
    39    15    16    1
    40    16    17    1
    41     8     9   ar
    42     9    10   ar
    43    10    11    1
    44    46    38   ar
    45    36    31   ar
    46    10     5   ar
    47    46    41   ar
    48    17    12    1
    49    25    18   ar
    50     3     4    1
    51    40    47    1
    52    29    30    1
@<TRIPOS>MOLECULE
*****
 47 52 0 0 0
SMALL
GASTEIGER

@<TRIPOS>ATOM
      1 O         -28.4827   51.7631   -9.0619 O.2     1  UNL1       -0.2701
      2 C         -27.7573   50.8280   -9.4958 C.2     1  UNL1        0.2483
      3 N         -28.3295   49.5237   -9.6473 N.am    1  UNL1       -0.2945
      4 H         -28.4462   49.1387  -10.6114 H       1  UNL1        0.1501
      5 C         -26.3198   51.0757   -9.7877 C.ar    1  UNL1        0.0808
      6 C         -25.8435   50.9214  -11.1025 C.ar    1  UNL1        0.0080
      7 C         -24.5230   51.2407  -11.4273 C.ar    1  UNL1        0.0148
      8 C         -23.6420   51.7207  -10.4466 C.ar    1  UNL1        0.0502
      9 C         -24.1072   51.8579   -9.1285 C.ar    1  UNL1        0.0443
     10 C         -25.4236   51.5287   -8.7954 C.ar    1  UNL1        0.1457
     11 F         -25.8111   51.6836   -7.5053 F       1  UNL1       -0.2040
     12 N         -22.3022   52.1238  -10.8040 N.pl3   1  UNL1       -0.3040
     13 C         -21.1254   51.4028  -10.2962 C.3     1  UNL1        0.1122
     14 C         -20.3173   52.3338   -9.3841 C.3     1  UNL1        0.1122
     15 N         -20.2417   53.6941   -9.9461 N.pl3   1  UNL1       -0.3040
     16 C         -20.6657   53.9146  -11.3377 C.3     1  UNL1        0.1122
     17 C         -22.0962   53.3918  -11.5268 C.3     1  UNL1        0.1122
     18 C         -19.8832   54.7986   -9.0891 C.ar    1  UNL1        0.0488
     19 C         -19.4066   54.5711   -7.7860 C.ar    1  UNL1        0.0154
     20 C         -19.0240   55.6414   -6.9743 C.ar    1  UNL1        0.0135
     21 C         -19.1088   56.9534   -7.4494 C.ar    1  UNL1        0.0683
     22 CL        -18.6121   58.2735   -6.3994 Cl      1  UNL1       -0.0814
     23 C         -19.5804   57.1939   -8.7501 C.ar    1  UNL1        0.0694
     24 CL        -19.7003   58.8284   -9.3877 Cl      1  UNL1       -0.0813
     25 C         -19.9617   56.1199   -9.5629 C.ar    1  UNL1        0.0268
     26 C         -28.6029   48.6530   -8.5007 C.3     1  UNL1        0.1535
     27 C         -28.8086   49.4903   -7.2569 C.2     1  UNL1        0.2443
     28 O         -27.9529   49.4738   -6.3303 O.2     1  UNL1       -0.2730
     29 N         -30.0088   50.2668   -7.1196 N.am    1  UNL1       -0.2825
     30 H         -30.5091   50.5402   -7.9957 H       1  UNL1        0.1549
     31 C         -30.5834   50.6717   -5.8626 C.ar    1  UNL1        0.0535
     32 C         -30.8885   52.0165   -5.5821 C.ar    1  UNL1        0.0353
     33 C         -31.3969   52.3617   -4.3279 C.ar    1  UNL1        0.1002
     34 N         -31.5832   51.4067   -3.3798 N.ar    1  UNL1       -0.2422
     35 C         -31.2827   50.1030   -3.6148 C.ar    1  UNL1        0.1002
     36 C         -30.7727   49.7140   -4.8559 C.ar    1  UNL1        0.0353
     37 C         -29.7887   47.7171   -8.8105 C.3     1  UNL1        0.0569
     38 C         -29.5379   46.8955  -10.0431 C.ar    1  UNL1       -0.0017
     39 C         -28.6532   45.8278  -10.1661 C.ar    1  UNL1        0.0681
     40 N         -28.6493   45.3620  -11.4360 N.ar    1  UNL1       -0.3523
     41 C         -29.5178   46.1300  -12.1165 C.ar    1  UNL1        0.0563
     42 C         -29.8457   46.0406  -13.4687 C.ar    1  UNL1        0.0170
     43 C         -30.7790   46.9604  -13.9811 C.ar    1  UNL1        0.0015
     44 C         -31.3557   47.9386  -13.1406 C.ar    1  UNL1        0.0001
     45 C         -31.0049   48.0058  -11.7799 C.ar    1  UNL1        0.0012
     46 C         -30.0785   47.0791  -11.3008 C.ar    1  UNL1        0.0131
     47 H         -28.0786   44.5715  -11.8098 H       1  UNL1        0.1660
@<TRIPOS>BOND
     1     1     2    2
     2     2     3   am
     3     3    26    1
     4    26    37    1
     5    37    38    1
     6    38    39   ar
     7    39    40   ar
     8    40    41   ar
     9    41    42   ar
    10    42    43   ar
    11    43    44   ar
    12    44    45   ar
    13    45    46   ar
    14    26    27    1
    15    27    28    2
    16    27    29   am
    17    29    31    1
    18    31    32   ar
    19    32    33   ar
    20    33    34   ar
    21    34    35   ar
    22    35    36   ar
    23     2     5    1
    24     5     6   ar
    25     6     7   ar
    26     7     8   ar
    27     8    12    1
    28    12    13    1
    29    13    14    1
    30    14    15    1
    31    15    18    1
    32    18    19   ar
    33    19    20   ar
    34    20    21   ar
    35    21    22    1
    36    21    23   ar
    37    23    24    1
    38    23    25   ar
    39    15    16    1
    40    16    17    1
    41     8     9   ar
    42     9    10   ar
    43    10    11    1
    44    46    38   ar
    45    36    31   ar
    46    10     5   ar
    47    46    41   ar
    48    17    12    1
    49    25    18   ar
    50     3     4    1
    51    40    47    1
    52    29    30    1
@<TRIPOS>MOLECULE
*****
 47 52 0 0 0
SMALL
GASTEIGER

@<TRIPOS>ATOM
      1 O         -23.1718   53.1537  -11.9570 O.2     1  UNL1       -0.2701
      2 C         -23.2016   52.8809  -10.7267 C.2     1  UNL1        0.2483
      3 N         -22.3992   53.6557   -9.8281 N.am    1  UNL1       -0.2945
      4 H         -22.8797   54.2760   -9.1383 H       1  UNL1        0.1501
      5 C         -24.0163   51.7361  -10.2380 C.ar    1  UNL1        0.0808
      6 C         -23.9698   51.3842   -8.8766 C.ar    1  UNL1        0.0080
      7 C         -24.7958   50.3788   -8.3688 C.ar    1  UNL1        0.0148
      8 C         -25.6891   49.6960   -9.2081 C.ar    1  UNL1        0.0502
      9 C         -25.7252   50.0302  -10.5718 C.ar    1  UNL1        0.0443
     10 C         -24.8928   51.0269  -11.0876 C.ar    1  UNL1        0.1457
     11 F         -24.9758   51.3024  -12.4127 F       1  UNL1       -0.2040
     12 N         -26.5960   48.7134   -8.6629 N.pl3   1  UNL1       -0.3040
     13 C         -27.8909   48.4310   -9.3001 C.3     1  UNL1        0.1122
     14 C         -29.0220   48.8487   -8.3525 C.3     1  UNL1        0.1122
     15 N         -28.7156   48.4725   -6.9609 N.pl3   1  UNL1       -0.3040
     16 C         -27.5909   47.5602   -6.7007 C.3     1  UNL1        0.1122
     17 C         -26.3152   48.1233   -7.3417 C.3     1  UNL1        0.1122
     18 C         -29.4325   49.1041   -5.8792 C.ar    1  UNL1        0.0488
     19 C         -29.6588   48.4201   -4.6718 C.ar    1  UNL1        0.0154
     20 C         -30.3189   49.0492   -3.6138 C.ar    1  UNL1        0.0135
     21 C         -30.7613   50.3690   -3.7425 C.ar    1  UNL1        0.0683
     22 CL        -31.5830   51.1282   -2.3859 Cl      1  UNL1       -0.0814
     23 C         -30.5389   51.0642   -4.9422 C.ar    1  UNL1        0.0694
     24 CL        -31.0766   52.7261   -5.1449 Cl      1  UNL1       -0.0813
     25 C         -29.8756   50.4327   -6.0009 C.ar    1  UNL1        0.0268
     26 C         -20.9467   53.4860   -9.7343 C.3     1  UNL1        0.1535
     27 C         -20.2850   54.8300   -9.5196 C.2     1  UNL1        0.2443
     28 O         -19.5581   55.3323  -10.4198 O.2     1  UNL1       -0.2730
     29 N         -20.4530   55.5068   -8.2642 N.am    1  UNL1       -0.2825
     30 H         -21.2983   55.2686   -7.6974 H       1  UNL1        0.1549
     31 C         -19.5283   56.4683   -7.7214 C.ar    1  UNL1        0.0535
     32 C         -18.5507   56.1092   -6.7751 C.ar    1  UNL1        0.0353
     33 C         -17.7122   57.0910   -6.2425 C.ar    1  UNL1        0.1002
     34 N         -17.8484   58.3872   -6.6259 N.ar    1  UNL1       -0.2422
     35 C         -18.7933   58.7674   -7.5248 C.ar    1  UNL1        0.1002
     36 C         -19.6523   57.8175   -8.0829 C.ar    1  UNL1        0.0353
     37 C         -20.5982   52.4521   -8.6445 C.3     1  UNL1        0.0569
     38 C         -19.1232   52.1696   -8.6011 C.ar    1  UNL1       -0.0017
     39 C         -18.3279   52.0700   -7.4630 C.ar    1  UNL1        0.0681
     40 N         -17.0363   51.8618   -7.8065 N.ar    1  UNL1       -0.3523
     41 C         -17.0084   51.8360   -9.1503 C.ar    1  UNL1        0.0563
     42 C         -15.8940   51.6599   -9.9694 C.ar    1  UNL1        0.0170
     43 C         -16.0922   51.6784  -11.3623 C.ar    1  UNL1        0.0015
     44 C         -17.3846   51.8720  -11.8990 C.ar    1  UNL1        0.0001
     45 C         -18.4908   52.0482  -11.0479 C.ar    1  UNL1        0.0012
     46 C         -18.2629   52.0230   -9.6717 C.ar    1  UNL1        0.0131
     47 H         -16.2265   51.7530   -7.1563 H       1  UNL1        0.1660
@<TRIPOS>BOND
     1     1     2    2
     2     2     3   am
     3     3    26    1
     4    26    37    1
     5    37    38    1
     6    38    39   ar
     7    39    40   ar
     8    40    41   ar
     9    41    42   ar
    10    42    43   ar
    11    43    44   ar
    12    44    45   ar
    13    45    46   ar
    14    26    27    1
    15    27    28    2
    16    27    29   am
    17    29    31    1
    18    31    32   ar
    19    32    33   ar
    20    33    34   ar
    21    34    35   ar
    22    35    36   ar
    23     2     5    1
    24     5     6   ar
    25     6     7   ar
    26     7     8   ar
    27     8    12    1
    28    12    13    1
    29    13    14    1
    30    14    15    1
    31    15    18    1
    32    18    19   ar
    33    19    20   ar
    34    20    21   ar
    35    21    22    1
    36    21    23   ar
    37    23    24    1
    38    23    25   ar
    39    15    16    1
    40    16    17    1
    41     8     9   ar
    42     9    10   ar
    43    10    11    1
    44    46    38   ar
    45    36    31   ar
    46    10     5   ar
    47    46    41   ar
    48    17    12    1
    49    25    18   ar
    50     3     4    1
    51    40    47    1
    52    29    30    1
@<TRIPOS>MOLECULE
*****
 47 52 0 0 0
SMALL
GASTEIGER

@<TRIPOS>ATOM
      1 O         -21.8606   51.6708  -11.8717 O.2     1  UNL1       -0.2701
      2 C         -22.4277   52.2984  -10.9370 C.2     1  UNL1        0.2483
      3 N         -21.9350   53.5943  -10.5770 N.am    1  UNL1       -0.2945
      4 H         -22.5391   54.4266  -10.7603 H       1  UNL1        0.1501
      5 C         -23.5513   51.6688  -10.1926 C.ar    1  UNL1        0.0808
      6 C         -23.4816   51.5653   -8.7912 C.ar    1  UNL1        0.0080
      7 C         -24.5607   51.0692   -8.0559 C.ar    1  UNL1        0.0148
      8 C         -25.7377   50.6609   -8.7011 C.ar    1  UNL1        0.0502
      9 C         -25.8047   50.7439  -10.1015 C.ar    1  UNL1        0.0443
     10 C         -24.7241   51.2282  -10.8432 C.ar    1  UNL1        0.1457
     11 F         -24.8518   51.2832  -12.1920 F       1  UNL1       -0.2040
     12 N         -26.8779   50.2237   -7.9304 N.pl3   1  UNL1       -0.3040
     13 C         -27.2875   50.9259   -6.7050 C.3     1  UNL1        0.1122
     14 C         -27.1092   49.9902   -5.5030 C.3     1  UNL1        0.1122
     15 N         -27.5482   48.6209   -5.8259 N.pl3   1  UNL1       -0.3040
     16 C         -28.3116   48.3904   -7.0624 C.3     1  UNL1        0.1122
     17 C         -27.5261   48.9416   -8.2601 C.3     1  UNL1        0.1122
     18 C         -27.1114   47.5208   -5.0001 C.ar    1  UNL1        0.0488
     19 C         -25.9318   46.8188   -5.3044 C.ar    1  UNL1        0.0154
     20 C         -25.4925   45.7803   -4.4802 C.ar    1  UNL1        0.0135
     21 C         -26.2206   45.4274   -3.3402 C.ar    1  UNL1        0.0683
     22 CL        -25.6316   44.1184   -2.3246 Cl      1  UNL1       -0.0814
     23 C         -27.3988   46.1227   -3.0235 C.ar    1  UNL1        0.0694
     24 CL        -28.3429   45.7128   -1.5977 Cl      1  UNL1       -0.0813
     25 C         -27.8367   47.1645   -3.8498 C.ar    1  UNL1        0.0268
     26 C         -20.6941   53.7748   -9.8187 C.3     1  UNL1        0.1535
     27 C         -20.6546   55.1645   -9.2208 C.2     1  UNL1        0.2443
     28 O         -21.2757   56.1129   -9.7740 O.2     1  UNL1       -0.2730
     29 N         -19.8656   55.4048   -8.0453 N.am    1  UNL1       -0.2825
     30 H         -19.6609   54.5875   -7.4266 H       1  UNL1        0.1549
     31 C         -19.3168   56.6835   -7.6741 C.ar    1  UNL1        0.0535
     32 C         -19.5643   57.8468   -8.4262 C.ar    1  UNL1        0.0353
     33 C         -18.9656   59.0516   -8.0511 C.ar    1  UNL1        0.1002
     34 N         -18.1387   59.0974   -6.9741 N.ar    1  UNL1       -0.2422
     35 C         -17.8673   57.9883   -6.2382 C.ar    1  UNL1        0.1002
     36 C         -18.4456   56.7628   -6.5780 C.ar    1  UNL1        0.0353
     37 C         -20.5396   52.6540   -8.7709 C.3     1  UNL1        0.0569
     38 C         -19.1099   52.2109   -8.6411 C.ar    1  UNL1       -0.0017
     39 C         -18.4215   51.9561   -7.4583 C.ar    1  UNL1        0.0681
     40 N         -17.1354   51.6304   -7.7216 N.ar    1  UNL1       -0.3523
     41 C         -17.0043   51.6840   -9.0584 C.ar    1  UNL1        0.0563
     42 C         -15.8529   51.4385   -9.8054 C.ar    1  UNL1        0.0170
     43 C         -15.9376   51.5636  -11.2042 C.ar    1  UNL1        0.0015
     44 C         -17.1566   51.9288  -11.8179 C.ar    1  UNL1        0.0001
     45 C         -18.3023   52.1716  -11.0385 C.ar    1  UNL1        0.0012
     46 C         -18.1876   52.0376   -9.6545 C.ar    1  UNL1        0.0131
     47 H         -16.3951   51.3947   -7.0238 H       1  UNL1        0.1660
@<TRIPOS>BOND
     1     1     2    2
     2     2     3   am
     3     3    26    1
     4    26    37    1
     5    37    38    1
     6    38    39   ar
     7    39    40   ar
     8    40    41   ar
     9    41    42   ar
    10    42    43   ar
    11    43    44   ar
    12    44    45   ar
    13    45    46   ar
    14    26    27    1
    15    27    28    2
    16    27    29   am
    17    29    31    1
    18    31    32   ar
    19    32    33   ar
    20    33    34   ar
    21    34    35   ar
    22    35    36   ar
    23     2     5    1
    24     5     6   ar
    25     6     7   ar
    26     7     8   ar
    27     8    12    1
    28    12    13    1
    29    13    14    1
    30    14    15    1
    31    15    18    1
    32    18    19   ar
    33    19    20   ar
    34    20    21   ar
    35    21    22    1
    36    21    23   ar
    37    23    24    1
    38    23    25   ar
    39    15    16    1
    40    16    17    1
    41     8     9   ar
    42     9    10   ar
    43    10    11    1
    44    46    38   ar
    45    36    31   ar
    46    10     5   ar
    47    46    41   ar
    48    17    12    1
    49    25    18   ar
    50     3     4    1
    51    40    47    1
    52    29    30    1
@<TRIPOS>MOLECULE
*****
 47 52 0 0 0
SMALL
GASTEIGER

@<TRIPOS>ATOM
      1 O         -21.8937   51.7019  -11.5068 O.2     1  UNL1       -0.2701
      2 C         -22.6741   52.3187  -10.7325 C.2     1  UNL1        0.2483
      3 N         -22.3570   53.6654  -10.3617 N.am    1  UNL1       -0.2945
      4 H         -22.9751   54.4356  -10.7023 H       1  UNL1        0.1501
      5 C         -23.8693   51.6292  -10.1765 C.ar    1  UNL1        0.0808
      6 C         -24.9524   51.3300  -11.0231 C.ar    1  UNL1        0.0080
      7 C         -26.0457   50.5975  -10.5547 C.ar    1  UNL1        0.0148
      8 C         -26.0873   50.1460   -9.2270 C.ar    1  UNL1        0.0502
      9 C         -25.0174   50.4589   -8.3726 C.ar    1  UNL1        0.0443
     10 C         -23.9267   51.2015   -8.8324 C.ar    1  UNL1        0.1457
     11 F         -22.9259   51.4702   -7.9579 F       1  UNL1       -0.2040
     12 N         -27.1820   49.3223   -8.7706 N.pl3   1  UNL1       -0.3040
     13 C         -28.2350   49.8641   -7.8987 C.3     1  UNL1        0.1122
     14 C         -28.1733   49.1626   -6.5363 C.3     1  UNL1        0.1122
     15 N         -27.9285   47.7178   -6.6931 N.pl3   1  UNL1       -0.3040
     16 C         -28.0495   47.1157   -8.0302 C.3     1  UNL1        0.1122
     17 C         -27.1458   47.8692   -9.0155 C.3     1  UNL1        0.1122
     18 C         -27.4487   46.9517   -5.5681 C.ar    1  UNL1        0.0488
     19 C         -26.0762   46.6904   -5.4102 C.ar    1  UNL1        0.0154
     20 C         -25.6128   45.9820   -4.2992 C.ar    1  UNL1        0.0135
     21 C         -26.5094   45.5253   -3.3288 C.ar    1  UNL1        0.0683
     22 CL        -25.8864   44.6424   -1.9416 Cl      1  UNL1       -0.0814
     23 C         -27.8823   45.7823   -3.4732 C.ar    1  UNL1        0.0694
     24 CL        -29.0436   45.2282   -2.2746 Cl      1  UNL1       -0.0813
     25 C         -28.3449   46.4940   -4.5864 C.ar    1  UNL1        0.0268
     26 C         -21.3008   53.9814   -9.3962 C.3     1  UNL1        0.1535
     27 C         -20.2696   52.8739   -9.3816 C.2     1  UNL1        0.2443
     28 O         -20.1674   52.1130   -8.3807 O.2     1  UNL1       -0.2730
     29 N         -19.3766   52.7264  -10.4966 N.am    1  UNL1       -0.2825
     30 H         -19.6893   53.1074  -11.4183 H       1  UNL1        0.1549
     31 C         -18.0742   52.1156  -10.4281 C.ar    1  UNL1        0.0535
     32 C         -17.5452   51.6234   -9.2206 C.ar    1  UNL1        0.0353
     33 C         -16.2559   51.0867   -9.1999 C.ar    1  UNL1        0.1002
     34 N         -15.5120   51.0522  -10.3362 N.ar    1  UNL1       -0.2422
     35 C         -15.9886   51.5345  -11.5133 C.ar    1  UNL1        0.1002
     36 C         -17.2734   52.0793  -11.5787 C.ar    1  UNL1        0.0353
     37 C         -20.7017   55.3706   -9.6945 C.3     1  UNL1        0.0569
     38 C         -19.8761   55.8757   -8.5453 C.ar    1  UNL1       -0.0017
     39 C         -19.4023   55.1299   -7.4696 C.ar    1  UNL1        0.0681
     40 N         -18.7421   55.9259   -6.5978 N.ar    1  UNL1       -0.3523
     41 C         -18.8007   57.1674   -7.1100 C.ar    1  UNL1        0.0563
     42 C         -18.2705   58.3342   -6.5609 C.ar    1  UNL1        0.0170
     43 C         -18.4596   59.5373   -7.2654 C.ar    1  UNL1        0.0015
     44 C         -19.1678   59.5474   -8.4879 C.ar    1  UNL1        0.0001
     45 C         -19.6928   58.3545   -9.0174 C.ar    1  UNL1        0.0012
     46 C         -19.4873   57.1775   -8.2970 C.ar    1  UNL1        0.0131
     47 H         -18.2880   55.6325   -5.7043 H       1  UNL1        0.1660
@<TRIPOS>BOND
     1     1     2    2
     2     2     3   am
     3     3    26    1
     4    26    37    1
     5    37    38    1
     6    38    39   ar
     7    39    40   ar
     8    40    41   ar
     9    41    42   ar
    10    42    43   ar
    11    43    44   ar
    12    44    45   ar
    13    45    46   ar
    14    26    27    1
    15    27    28    2
    16    27    29   am
    17    29    31    1
    18    31    32   ar
    19    32    33   ar
    20    33    34   ar
    21    34    35   ar
    22    35    36   ar
    23     2     5    1
    24     5     6   ar
    25     6     7   ar
    26     7     8   ar
    27     8    12    1
    28    12    13    1
    29    13    14    1
    30    14    15    1
    31    15    18    1
    32    18    19   ar
    33    19    20   ar
    34    20    21   ar
    35    21    22    1
    36    21    23   ar
    37    23    24    1
    38    23    25   ar
    39    15    16    1
    40    16    17    1
    41     8     9   ar
    42     9    10   ar
    43    10    11    1
    44    46    38   ar
    45    36    31   ar
    46    10     5   ar
    47    46    41   ar
    48    17    12    1
    49    25    18   ar
    50     3     4    1
    51    40    47    1
    52    29    30    1
@<TRIPOS>MOLECULE
*****
 47 52 0 0 0
SMALL
GASTEIGER

@<TRIPOS>ATOM
      1 O         -27.6575   48.9179   -9.5305 O.2     1  UNL1       -0.2701
      2 C         -27.0020   49.7486   -8.8454 C.2     1  UNL1        0.2483
      3 N         -27.5287   50.1695   -7.5816 N.am    1  UNL1       -0.2945
      4 H         -27.0234   49.8883   -6.7116 H       1  UNL1        0.1501
      5 C         -25.7339   50.3158   -9.3774 C.ar    1  UNL1        0.0808
      6 C         -25.5862   50.5008  -10.7643 C.ar    1  UNL1        0.0080
      7 C         -24.4486   51.1207  -11.2863 C.ar    1  UNL1        0.0148
      8 C         -23.4266   51.5706  -10.4369 C.ar    1  UNL1        0.0502
      9 C         -23.5604   51.3706   -9.0532 C.ar    1  UNL1        0.0443
     10 C         -24.6908   50.7404   -8.5263 C.ar    1  UNL1        0.1457
     11 F         -24.7598   50.5775   -7.1819 F       1  UNL1       -0.2040
     12 N         -22.2905   52.2811  -10.9752 N.pl3   1  UNL1       -0.3040
     13 C         -20.9411   51.6971  -10.9498 C.3     1  UNL1        0.1122
     14 C         -20.0419   52.5423  -10.0394 C.3     1  UNL1        0.1122
     15 N         -20.2876   53.9818  -10.2380 N.pl3   1  UNL1       -0.3040
     16 C         -21.0897   54.4149  -11.3930 C.3     1  UNL1        0.1122
     17 C         -22.4427   53.6908  -11.3781 C.3     1  UNL1        0.1122
     18 C         -19.8544   54.9224   -9.2328 C.ar    1  UNL1        0.0488
     19 C         -19.3256   54.4735   -8.0097 C.ar    1  UNL1        0.0154
     20 C         -18.8716   55.3873   -7.0559 C.ar    1  UNL1        0.0135
     21 C         -18.9360   56.7609   -7.3073 C.ar    1  UNL1        0.0683
     22 CL        -18.3489   57.8792   -6.0839 Cl      1  UNL1       -0.0814
     23 C         -19.4591   57.2221   -8.5261 C.ar    1  UNL1        0.0694
     24 CL        -19.5556   58.9412   -8.8835 Cl      1  UNL1       -0.0813
     25 C         -19.9121   56.3048   -9.4817 C.ar    1  UNL1        0.0268
     26 C         -28.6486   51.1089   -7.4763 C.3     1  UNL1        0.1535
     27 C         -29.7770   50.6671   -8.3827 C.2     1  UNL1        0.2443
     28 O         -30.7194   49.9624   -7.9283 O.2     1  UNL1       -0.2730
     29 N         -29.7418   51.0168   -9.7751 N.am    1  UNL1       -0.2825
     30 H         -29.1791   51.8544  -10.0478 H       1  UNL1        0.1549
     31 C         -30.4039   50.2816  -10.8216 C.ar    1  UNL1        0.0535
     32 C         -30.6531   48.9005  -10.7185 C.ar    1  UNL1        0.0353
     33 C         -31.2526   48.2258  -11.7843 C.ar    1  UNL1        0.1002
     34 N         -31.5812   48.8965  -12.9192 N.ar    1  UNL1       -0.2422
     35 C         -31.3383   50.2261  -13.0552 C.ar    1  UNL1        0.1002
     36 C         -30.7410   50.9396  -12.0132 C.ar    1  UNL1        0.0353
     37 C         -29.0752   51.2695   -6.0031 C.3     1  UNL1        0.0569
     38 C         -27.9375   50.9863   -5.0634 C.ar    1  UNL1       -0.0017
     39 C         -26.7967   51.7625   -4.8798 C.ar    1  UNL1        0.0681
     40 N         -25.9617   51.1721   -3.9945 N.ar    1  UNL1       -0.3523
     41 C         -26.5618   50.0278   -3.6234 C.ar    1  UNL1        0.0563
     42 C         -26.0791   49.0708   -2.7318 C.ar    1  UNL1        0.0170
     43 C         -26.8726   47.9333   -2.4950 C.ar    1  UNL1        0.0015
     44 C         -28.1157   47.7789   -3.1484 C.ar    1  UNL1        0.0001
     45 C         -28.5770   48.7607   -4.0441 C.ar    1  UNL1        0.0012
     46 C         -27.7689   49.8780   -4.2567 C.ar    1  UNL1        0.0131
     47 H         -25.0351   51.5315   -3.6740 H       1  UNL1        0.1660
@<TRIPOS>BOND
     1     1     2    2
     2     2     3   am
     3     3    26    1
     4    26    37    1
     5    37    38    1
     6    38    39   ar
     7    39    40   ar
     8    40    41   ar
     9    41    42   ar
    10    42    43   ar
    11    43    44   ar
    12    44    45   ar
    13    45    46   ar
    14    26    27    1
    15    27    28    2
    16    27    29   am
    17    29    31    1
    18    31    32   ar
    19    32    33   ar
    20    33    34   ar
    21    34    35   ar
    22    35    36   ar
    23     2     5    1
    24     5     6   ar
    25     6     7   ar
    26     7     8   ar
    27     8    12    1
    28    12    13    1
    29    13    14    1
    30    14    15    1
    31    15    18    1
    32    18    19   ar
    33    19    20   ar
    34    20    21   ar
    35    21    22    1
    36    21    23   ar
    37    23    24    1
    38    23    25   ar
    39    15    16    1
    40    16    17    1
    41     8     9   ar
    42     9    10   ar
    43    10    11    1
    44    46    38   ar
    45    36    31   ar
    46    10     5   ar
    47    46    41   ar
    48    17    12    1
    49    25    18   ar
    50     3     4    1
    51    40    47    1
    52    29    30    1
