@<TRIPOS>MOLECULE
*****
 26 29 0 0 0
SMALL
GASTEIGER

@<TRIPOS>ATOM
      1 C         -23.4027  -11.6025  -16.2934 C.3     1  UNL1        0.1428
      2 O         -24.6011  -12.1101  -16.8321 O.3     1  UNL1       -0.3752
      3 C         -22.8983  -10.3618  -17.0956 C.3     1  UNL1        0.0500
      4 C         -22.2913   -9.3636  -16.0770 C.3     1  UNL1        0.0472
      5 S         -23.1606   -7.7503  -16.0927 S.3     1  UNL1       -0.1687
      6 C         -22.3831  -10.1104  -14.7417 C.3     1  UNL1        0.0132
      7 C         -22.3431   -9.4081  -13.3776 C.3     1  UNL1        0.0053
      8 C         -21.2752   -8.3155  -13.2001 C.3     1  UNL1        0.0050
      9 C         -21.3151   -7.7179  -11.7618 C.3     1  UNL1        0.0261
     10 C         -22.0796   -8.5329  -10.7153 C.ar    1  UNL1       -0.0231
     11 C         -22.3910   -7.9271   -9.4885 C.ar    1  UNL1        0.0320
     12 C         -23.1487   -8.6056   -8.5311 C.ar    1  UNL1        0.1333
     13 O         -23.4480   -7.9802   -7.3229 O.3     1  UNL1       -0.5055
     14 C         -23.6073   -9.9005   -8.7957 C.ar    1  UNL1        0.0363
     15 C         -23.2971  -10.5269  -10.0049 C.ar    1  UNL1       -0.0015
     16 C         -22.5113   -9.8630  -10.9663 C.ar    1  UNL1       -0.0263
     17 C         -22.0820  -10.4769  -12.2798 C.3     1  UNL1        0.0221
     18 C         -22.5071  -11.9430  -12.6482 C.3     1  UNL1        0.0045
     19 C         -23.6526  -12.0822  -13.6737 C.3     1  UNL1        0.0036
     20 C         -23.6174  -11.0426  -14.8540 C.3     1  UNL1        0.0341
     21 C         -24.9859  -10.2795  -14.8156 C.3     1  UNL1        0.0034
     22 H         -24.4374  -12.3142  -17.7907 H       1  UNL1        0.2114
     23 H         -22.7391   -7.4545  -17.4030 H       1  UNL1        0.1023
     24 H         -23.9976   -8.4434   -6.6085 H       1  UNL1        0.2922
     25 C         -21.5395  -13.5429  -16.3440 C.1     1  UNL1       -0.0119
     26 C         -22.3735  -12.6726  -16.3213 C.1     1  UNL1       -0.0525
@<TRIPOS>BOND
     1    25    26    3
     2     1    26    1
     3     1     2    1
     4     1     3    1
     5     3     4    1
     6     4     5    1
     7     4     6    1
     8     6     7    1
     9     7     8    1
    10     8     9    1
    11     9    10    1
    12    10    11   ar
    13    11    12   ar
    14    12    13    1
    15    12    14   ar
    16    14    15   ar
    17    15    16   ar
    18    16    17    1
    19    17    18    1
    20    18    19    1
    21    19    20    1
    22    20    21    1
    23    20     1    1
    24    20     6    1
    25    17     7    1
    26    16    10   ar
    27     2    22    1
    28     5    23    1
    29    13    24    1
@<TRIPOS>MOLECULE
*****
 26 29 0 0 0
SMALL
GASTEIGER

@<TRIPOS>ATOM
      1 C         -24.3435  -13.3372  -15.3550 C.3     1  UNL1        0.1428
      2 O         -24.7227  -13.3455  -16.7115 O.3     1  UNL1       -0.3752
      3 C         -23.1665  -14.3271  -15.0867 C.3     1  UNL1        0.0500
      4 C         -22.2346  -13.6695  -14.0369 C.3     1  UNL1        0.0472
      5 S         -20.5381  -13.4194  -14.6834 S.3     1  UNL1       -0.1687
      6 C         -22.9624  -12.3710  -13.6717 C.3     1  UNL1        0.0132
      7 C         -22.2632  -11.1623  -13.0349 C.3     1  UNL1        0.0053
      8 C         -21.2897  -11.4621  -11.8824 C.3     1  UNL1        0.0050
      9 C         -20.6859  -10.1493  -11.2999 C.3     1  UNL1        0.0261
     10 C         -21.4110   -8.8528  -11.6700 C.ar    1  UNL1       -0.0231
     11 C         -20.7709   -7.6298  -11.4178 C.ar    1  UNL1        0.0320
     12 C         -21.3615   -6.4240  -11.8032 C.ar    1  UNL1        0.1333
     13 O         -20.7032   -5.2237  -11.5453 O.3     1  UNL1       -0.5055
     14 C         -22.6012   -6.4315  -12.4513 C.ar    1  UNL1        0.0363
     15 C         -23.2616   -7.6369  -12.6997 C.ar    1  UNL1       -0.0015
     16 C         -22.6886   -8.8566  -12.2915 C.ar    1  UNL1       -0.0263
     17 C         -23.3496  -10.2048  -12.4704 C.3     1  UNL1        0.0221
     18 C         -24.7636  -10.3132  -13.1449 C.3     1  UNL1        0.0045
     19 C         -24.7840  -10.8069  -14.6074 C.3     1  UNL1        0.0036
     20 C         -23.7585  -11.9539  -14.9356 C.3     1  UNL1        0.0341
     21 C         -22.8541  -11.4222  -16.1001 C.3     1  UNL1        0.0034
     22 H         -24.9467  -14.2825  -16.9554 H       1  UNL1        0.2114
     23 H         -20.2938  -14.8025  -14.7805 H       1  UNL1        0.1023
     24 H         -21.1027   -4.3320  -11.8143 H       1  UNL1        0.2922
     25 C         -26.4693  -14.0180  -13.8529 C.1     1  UNL1       -0.0119
     26 C         -25.5170  -13.7138  -14.5267 C.1     1  UNL1       -0.0525
@<TRIPOS>BOND
     1    25    26    3
     2     1    26    1
     3     1     2    1
     4     1     3    1
     5     3     4    1
     6     4     5    1
     7     4     6    1
     8     6     7    1
     9     7     8    1
    10     8     9    1
    11     9    10    1
    12    10    11   ar
    13    11    12   ar
    14    12    13    1
    15    12    14   ar
    16    14    15   ar
    17    15    16   ar
    18    16    17    1
    19    17    18    1
    20    18    19    1
    21    19    20    1
    22    20    21    1
    23    20     1    1
    24    20     6    1
    25    17     7    1
    26    16    10   ar
    27     2    22    1
    28     5    23    1
    29    13    24    1
@<TRIPOS>MOLECULE
*****
 26 29 0 0 0
SMALL
GASTEIGER

@<TRIPOS>ATOM
      1 C         -21.9847   -7.6802   -9.1015 C.3     1  UNL1        0.1428
      2 O         -22.0038   -6.3212   -8.7319 O.3     1  UNL1       -0.3752
      3 C         -23.1245   -8.4787   -8.3940 C.3     1  UNL1        0.0500
      4 C         -23.6602   -9.5226   -9.4070 C.3     1  UNL1        0.0472
      5 S         -25.4397   -9.2783   -9.7708 S.3     1  UNL1       -0.1687
      6 C         -22.7437   -9.3485  -10.6230 C.3     1  UNL1        0.0132
      7 C         -23.1226   -9.8072  -12.0378 C.3     1  UNL1        0.0053
      8 C         -23.7567  -11.2033  -12.1590 C.3     1  UNL1        0.0050
      9 C         -24.0502  -11.5608  -13.6467 C.3     1  UNL1        0.0261
     10 C         -23.3427  -10.7013  -14.6977 C.ar    1  UNL1       -0.0231
     11 C         -23.7717  -10.7826  -16.0312 C.ar    1  UNL1        0.0320
     12 C         -23.2054   -9.9656  -17.0126 C.ar    1  UNL1        0.1333
     13 O         -23.6523  -10.0626  -18.3285 O.3     1  UNL1       -0.5055
     14 C         -22.2034   -9.0530  -16.6660 C.ar    1  UNL1        0.0363
     15 C         -21.7524   -8.9658  -15.3471 C.ar    1  UNL1       -0.0015
     16 C         -22.2968   -9.8031  -14.3546 C.ar    1  UNL1       -0.0263
     17 C         -21.8386   -9.8173  -12.9136 C.3     1  UNL1        0.0221
     18 C         -20.6868   -8.8624  -12.4367 C.3     1  UNL1        0.0045
     19 C         -21.1228   -7.6185  -11.6330 C.3     1  UNL1        0.0036
     20 C         -22.2996   -7.8626  -10.6178 C.3     1  UNL1        0.0341
     21 C         -23.4419   -6.8646  -11.0126 C.3     1  UNL1        0.0034
     22 H         -21.9439   -6.2780   -7.7409 H       1  UNL1        0.2114
     23 H         -25.8268   -9.6038   -8.4569 H       1  UNL1        0.1023
     24 H         -23.2646   -9.4828  -19.0637 H       1  UNL1        0.2922
     25 C         -19.5952   -8.7263   -8.4422 C.1     1  UNL1       -0.0119
     26 C         -20.6655   -8.2573   -8.7387 C.1     1  UNL1       -0.0525
@<TRIPOS>BOND
     1    25    26    3
     2     1    26    1
     3     1     2    1
     4     1     3    1
     5     3     4    1
     6     4     5    1
     7     4     6    1
     8     6     7    1
     9     7     8    1
    10     8     9    1
    11     9    10    1
    12    10    11   ar
    13    11    12   ar
    14    12    13    1
    15    12    14   ar
    16    14    15   ar
    17    15    16   ar
    18    16    17    1
    19    17    18    1
    20    18    19    1
    21    19    20    1
    22    20    21    1
    23    20     1    1
    24    20     6    1
    25    17     7    1
    26    16    10   ar
    27     2    22    1
    28     5    23    1
    29    13    24    1
@<TRIPOS>MOLECULE
*****
 26 29 0 0 0
SMALL
GASTEIGER

@<TRIPOS>ATOM
      1 C         -22.0348   -8.2676  -12.4945 C.3     1  UNL1        0.1428
      2 O         -21.6026   -7.1533  -13.2398 O.3     1  UNL1       -0.3752
      3 C         -23.2437   -7.9039  -11.5760 C.3     1  UNL1        0.0500
      4 C         -24.2011   -9.1229  -11.5615 C.3     1  UNL1        0.0472
      5 S         -25.8647   -8.6990  -12.2032 S.3     1  UNL1       -0.1687
      6 C         -23.4591  -10.1743  -12.3939 C.3     1  UNL1        0.0132
      7 C         -24.1552  -11.3704  -13.0574 C.3     1  UNL1        0.0053
      8 C         -25.1800  -12.1302  -12.1983 C.3     1  UNL1        0.0050
      9 C         -25.7764  -13.3424  -12.9742 C.3     1  UNL1        0.0261
     10 C         -25.0079  -13.7872  -14.2214 C.ar    1  UNL1       -0.0231
     11 C         -25.6295  -14.6758  -15.1119 C.ar    1  UNL1        0.0320
     12 C         -24.9970  -15.0539  -16.2985 C.ar    1  UNL1        0.1333
     13 O         -25.6374  -15.9340  -17.1679 O.3     1  UNL1       -0.5055
     14 C         -23.7331  -14.5404  -16.6081 C.ar    1  UNL1        0.0363
     15 C         -23.0910  -13.6653  -15.7291 C.ar    1  UNL1       -0.0015
     16 C         -23.7072  -13.2984  -14.5174 C.ar    1  UNL1       -0.0263
     17 C         -23.0704  -12.3996  -13.4815 C.3     1  UNL1        0.0221
     18 C         -21.6338  -11.8105  -13.7159 C.3     1  UNL1        0.0045
     19 C         -21.5668  -10.3267  -14.1365 C.3     1  UNL1        0.0036
     20 C         -22.6044   -9.3857  -13.4201 C.3     1  UNL1        0.0341
     21 C         -23.4497   -8.7107  -14.5542 C.3     1  UNL1        0.0034
     22 H         -21.3905   -6.4255  -12.5973 H       1  UNL1        0.2114
     23 H         -26.1363   -7.8299  -11.1294 H       1  UNL1        0.1023
     24 H         -25.2075  -16.2261  -18.0378 H       1  UNL1        0.2922
     25 C         -19.9869   -9.1580  -10.9938 C.1     1  UNL1       -0.0119
     26 C         -20.9039   -8.7590  -11.6673 C.1     1  UNL1       -0.0525
@<TRIPOS>BOND
     1    25    26    3
     2     1    26    1
     3     1     2    1
     4     1     3    1
     5     3     4    1
     6     4     5    1
     7     4     6    1
     8     6     7    1
     9     7     8    1
    10     8     9    1
    11     9    10    1
    12    10    11   ar
    13    11    12   ar
    14    12    13    1
    15    12    14   ar
    16    14    15   ar
    17    15    16   ar
    18    16    17    1
    19    17    18    1
    20    18    19    1
    21    19    20    1
    22    20    21    1
    23    20     1    1
    24    20     6    1
    25    17     7    1
    26    16    10   ar
    27     2    22    1
    28     5    23    1
    29    13    24    1
@<TRIPOS>MOLECULE
*****
 26 29 0 0 0
SMALL
GASTEIGER

@<TRIPOS>ATOM
      1 C         -21.7693   -6.8529  -11.5478 C.3     1  UNL1        0.1428
      2 O         -20.8015   -5.9284  -11.9865 O.3     1  UNL1       -0.3752
      3 C         -23.2161   -6.3045  -11.7556 C.3     1  UNL1        0.0500
      4 C         -24.1104   -7.4977  -12.1791 C.3     1  UNL1        0.0472
      5 S         -24.8649   -7.2405  -13.8294 S.3     1  UNL1       -0.1687
      6 C         -23.1646   -8.7015  -12.1048 C.3     1  UNL1        0.0132
      7 C         -23.4178  -10.0206  -12.8471 C.3     1  UNL1        0.0053
      8 C         -24.8495  -10.5792  -12.7834 C.3     1  UNL1        0.0050
      9 C         -24.9574  -11.9383  -13.5375 C.3     1  UNL1        0.0261
     10 C         -23.6340  -12.6424  -13.8484 C.ar    1  UNL1       -0.0231
     11 C         -23.6394  -13.7116  -14.7571 C.ar    1  UNL1        0.0320
     12 C         -22.4470  -14.3383  -15.1267 C.ar    1  UNL1        0.1333
     13 O         -22.4791  -15.3947  -16.0343 O.3     1  UNL1       -0.5055
     14 C         -21.2327  -13.8960  -14.5912 C.ar    1  UNL1        0.0363
     15 C         -21.2064  -12.8424  -13.6747 C.ar    1  UNL1       -0.0015
     16 C         -22.4047  -12.2209  -13.2742 C.ar    1  UNL1       -0.0263
     17 C         -22.4818  -11.1094  -12.2518 C.3     1  UNL1        0.0221
     18 C         -21.1777  -10.5752  -11.5591 C.3     1  UNL1        0.0045
     19 C         -20.6409   -9.2212  -12.0706 C.3     1  UNL1        0.0036
     20 C         -21.7459   -8.1533  -12.4080 C.3     1  UNL1        0.0341
     21 C         -21.5348   -7.7537  -13.9088 C.3     1  UNL1        0.0034
     22 H         -20.9607   -5.0744  -11.5039 H       1  UNL1        0.2114
     23 H         -25.6454   -6.1570  -13.3832 H       1  UNL1        0.1023
     24 H         -21.6321  -15.8690  -16.3253 H       1  UNL1        0.2922
     25 C         -21.3543   -7.3704   -8.9403 C.1     1  UNL1       -0.0119
     26 C         -21.5412   -7.1393  -10.1087 C.1     1  UNL1       -0.0525
@<TRIPOS>BOND
     1    25    26    3
     2     1    26    1
     3     1     2    1
     4     1     3    1
     5     3     4    1
     6     4     5    1
     7     4     6    1
     8     6     7    1
     9     7     8    1
    10     8     9    1
    11     9    10    1
    12    10    11   ar
    13    11    12   ar
    14    12    13    1
    15    12    14   ar
    16    14    15   ar
    17    15    16   ar
    18    16    17    1
    19    17    18    1
    20    18    19    1
    21    19    20    1
    22    20    21    1
    23    20     1    1
    24    20     6    1
    25    17     7    1
    26    16    10   ar
    27     2    22    1
    28     5    23    1
    29    13    24    1
@<TRIPOS>MOLECULE
*****
 26 29 0 0 0
SMALL
GASTEIGER

@<TRIPOS>ATOM
      1 C         -22.8599  -12.6430  -16.4449 C.3     1  UNL1        0.1428
      2 O         -21.8446  -13.6146  -16.5407 O.3     1  UNL1       -0.3752
      3 C         -24.2077  -13.2726  -15.9715 C.3     1  UNL1        0.0500
      4 C         -24.8957  -12.2492  -15.0324 C.3     1  UNL1        0.0472
      5 S         -25.1573  -12.9268  -13.3497 S.3     1  UNL1       -0.1687
      6 C         -23.9635  -11.0335  -15.0789 C.3     1  UNL1        0.0132
      7 C         -23.9416   -9.9450  -13.9972 C.3     1  UNL1        0.0053
      8 C         -25.3085   -9.4349  -13.5102 C.3     1  UNL1        0.0050
      9 C         -25.1425   -8.3059  -12.4495 C.3     1  UNL1        0.0261
     10 C         -23.7586   -7.6562  -12.3690 C.ar    1  UNL1       -0.0231
     11 C         -23.4618   -6.8426  -11.2649 C.ar    1  UNL1        0.0320
     12 C         -22.1896   -6.2867  -11.1113 C.ar    1  UNL1        0.1333
     13 O         -21.9193   -5.4860  -10.0038 O.3     1  UNL1       -0.5055
     14 C         -21.1973   -6.5446  -12.0631 C.ar    1  UNL1        0.0363
     15 C         -21.4757   -7.3406  -13.1764 C.ar    1  UNL1       -0.0015
     16 C         -22.7622   -7.8841  -13.3558 C.ar    1  UNL1       -0.0263
     17 C         -23.1720   -8.7137  -14.5517 C.3     1  UNL1        0.0221
     18 C         -22.1422   -9.0192  -15.6973 C.3     1  UNL1        0.0045
     19 C         -21.5360  -10.4389  -15.7068 C.3     1  UNL1        0.0036
     20 C         -22.5402  -11.5925  -15.3378 C.3     1  UNL1        0.0341
     21 C         -21.9254  -12.3399  -14.1049 C.3     1  UNL1        0.0034
     22 H         -22.1688  -14.3293  -17.1503 H       1  UNL1        0.2114
     23 H         -26.0751  -13.8931  -13.8035 H       1  UNL1        0.1023
     24 H         -21.0063   -5.0699   -9.8612 H       1  UNL1        0.2922
     25 C         -23.1885  -11.4909  -18.8539 C.1     1  UNL1       -0.0119
     26 C         -23.0409  -12.0061  -17.7740 C.1     1  UNL1       -0.0525
@<TRIPOS>BOND
     1    25    26    3
     2     1    26    1
     3     1     2    1
     4     1     3    1
     5     3     4    1
     6     4     5    1
     7     4     6    1
     8     6     7    1
     9     7     8    1
    10     8     9    1
    11     9    10    1
    12    10    11   ar
    13    11    12   ar
    14    12    13    1
    15    12    14   ar
    16    14    15   ar
    17    15    16   ar
    18    16    17    1
    19    17    18    1
    20    18    19    1
    21    19    20    1
    22    20    21    1
    23    20     1    1
    24    20     6    1
    25    17     7    1
    26    16    10   ar
    27     2    22    1
    28     5    23    1
    29    13    24    1
@<TRIPOS>MOLECULE
*****
 26 29 0 0 0
SMALL
GASTEIGER

@<TRIPOS>ATOM
      1 C         -22.3047   -7.7378  -10.0000 C.3     1  UNL1        0.1428
      2 O         -22.8069   -7.5838   -8.6931 O.3     1  UNL1       -0.3752
      3 C         -20.7772   -8.0605   -9.9887 C.3     1  UNL1        0.0500
      4 C         -20.5068   -9.0745  -11.1294 C.3     1  UNL1        0.0472
      5 S         -19.8126  -10.6495  -10.4999 S.3     1  UNL1       -0.1687
      6 C         -21.8710   -9.2212  -11.8125 C.3     1  UNL1        0.0132
      7 C         -22.2511  -10.4227  -12.6886 C.3     1  UNL1        0.0053
      8 C         -21.1957  -10.8915  -13.7046 C.3     1  UNL1        0.0050
      9 C         -21.7247  -12.0846  -14.5555 C.3     1  UNL1        0.0261
     10 C         -23.2378  -12.3154  -14.5236 C.ar    1  UNL1       -0.0231
     11 C         -23.7440  -13.5216  -15.0313 C.ar    1  UNL1        0.0320
     12 C         -25.1093  -13.8079  -14.9585 C.ar    1  UNL1        0.1333
     13 O         -25.5859  -15.0146  -15.4659 O.3     1  UNL1       -0.5055
     14 C         -25.9835  -12.8875  -14.3704 C.ar    1  UNL1        0.0363
     15 C         -25.5022  -11.6751  -13.8712 C.ar    1  UNL1       -0.0015
     16 C         -24.1321  -11.3640  -13.9635 C.ar    1  UNL1       -0.0263
     17 C         -23.5268  -10.0587  -13.4986 C.3     1  UNL1        0.0221
     18 C         -24.4334   -8.9426  -12.8674 C.3     1  UNL1        0.0045
     19 C         -24.3672   -8.7996  -11.3317 C.3     1  UNL1        0.0036
     20 C         -22.9331   -8.9760  -10.7094 C.3     1  UNL1        0.0341
     21 C         -23.0399  -10.1443   -9.6700 C.3     1  UNL1        0.0034
     22 H         -22.2693   -6.8780   -8.2454 H       1  UNL1        0.2114
     23 H         -18.6186  -10.0367  -10.0746 H       1  UNL1        0.1023
     24 H         -26.5698  -15.2541  -15.4263 H       1  UNL1        0.2922
     25 C         -22.7460   -5.4661  -11.3725 C.1     1  UNL1       -0.0119
     26 C         -22.5489   -6.4847  -10.7583 C.1     1  UNL1       -0.0525
@<TRIPOS>BOND
     1    25    26    3
     2     1    26    1
     3     1     2    1
     4     1     3    1
     5     3     4    1
     6     4     5    1
     7     4     6    1
     8     6     7    1
     9     7     8    1
    10     8     9    1
    11     9    10    1
    12    10    11   ar
    13    11    12   ar
    14    12    13    1
    15    12    14   ar
    16    14    15   ar
    17    15    16   ar
    18    16    17    1
    19    17    18    1
    20    18    19    1
    21    19    20    1
    22    20    21    1
    23    20     1    1
    24    20     6    1
    25    17     7    1
    26    16    10   ar
    27     2    22    1
    28     5    23    1
    29    13    24    1
@<TRIPOS>MOLECULE
*****
 26 29 0 0 0
SMALL
GASTEIGER

@<TRIPOS>ATOM
      1 C         -23.8499   -8.4551  -14.2766 C.3     1  UNL1        0.1428
      2 O         -23.7784   -7.1797  -14.8700 O.3     1  UNL1       -0.3752
      3 C         -23.8287   -9.5858  -15.3528 C.3     1  UNL1        0.0500
      4 C         -22.9998  -10.7620  -14.7766 C.3     1  UNL1        0.0472
      5 S         -21.5357  -11.1438  -15.8108 S.3     1  UNL1       -0.1687
      6 C         -22.6583  -10.3005  -13.3555 C.3     1  UNL1        0.0132
      7 C         -21.4954  -10.8781  -12.5373 C.3     1  UNL1        0.0053
      8 C         -21.3385  -12.4081  -12.5544 C.3     1  UNL1        0.0050
      9 C         -20.1525  -12.8623  -11.6518 C.3     1  UNL1        0.0261
     10 C         -19.6318  -11.8259  -10.6526 C.ar    1  UNL1       -0.0231
     11 C         -18.4047  -12.0647  -10.0154 C.ar    1  UNL1        0.0320
     12 C         -17.8545  -11.1156   -9.1507 C.ar    1  UNL1        0.1333
     13 O         -16.6326  -11.3752   -8.5340 O.3     1  UNL1       -0.5055
     14 C         -18.5282   -9.9118   -8.9183 C.ar    1  UNL1        0.0363
     15 C         -19.7573   -9.6600   -9.5318 C.ar    1  UNL1       -0.0015
     16 C         -20.3346  -10.6207  -10.3841 C.ar    1  UNL1       -0.0263
     17 C         -21.6818  -10.4602  -11.0518 C.3     1  UNL1        0.0221
     18 C         -22.5362   -9.1640  -10.8158 C.3     1  UNL1        0.0045
     19 C         -22.5419   -8.1338  -11.9655 C.3     1  UNL1        0.0036
     20 C         -22.5872   -8.7523  -13.4114 C.3     1  UNL1        0.0341
     21 C         -21.3264   -8.2087  -14.1674 C.3     1  UNL1        0.0034
     22 H         -24.5287   -7.1066  -15.5176 H       1  UNL1        0.2114
     23 H         -22.3242  -11.5659  -16.8981 H       1  UNL1        0.1023
     24 H         -16.2048  -10.7068   -7.9037 H       1  UNL1        0.2922
     25 C         -26.1141   -8.6142  -12.8319 C.1     1  UNL1       -0.0119
     26 C         -25.0989   -8.5431  -13.4783 C.1     1  UNL1       -0.0525
@<TRIPOS>BOND
     1    25    26    3
     2     1    26    1
     3     1     2    1
     4     1     3    1
     5     3     4    1
     6     4     5    1
     7     4     6    1
     8     6     7    1
     9     7     8    1
    10     8     9    1
    11     9    10    1
    12    10    11   ar
    13    11    12   ar
    14    12    13    1
    15    12    14   ar
    16    14    15   ar
    17    15    16   ar
    18    16    17    1
    19    17    18    1
    20    18    19    1
    21    19    20    1
    22    20    21    1
    23    20     1    1
    24    20     6    1
    25    17     7    1
    26    16    10   ar
    27     2    22    1
    28     5    23    1
    29    13    24    1
@<TRIPOS>MOLECULE
*****
 26 29 0 0 0
SMALL
GASTEIGER

@<TRIPOS>ATOM
      1 C         -24.2978   -7.4317  -11.8283 C.3     1  UNL1        0.1428
      2 O         -24.6276   -7.3585  -10.4609 O.3     1  UNL1       -0.3752
      3 C         -22.9244   -6.7491  -12.1201 C.3     1  UNL1        0.0500
      4 C         -22.2069   -7.5911  -13.2058 C.3     1  UNL1        0.0472
      5 S         -20.6041   -8.2546  -12.6144 S.3     1  UNL1       -0.1687
      6 C         -23.2356   -8.6691  -13.5646 C.3     1  UNL1        0.0132
      7 C         -22.8657   -9.9980  -14.2373 C.3     1  UNL1        0.0053
      8 C         -21.8796   -9.9191  -15.4151 C.3     1  UNL1        0.0050
      9 C         -21.6258  -11.3271  -16.0319 C.3     1  UNL1        0.0261
     10 C         -22.6320  -12.4180  -15.6559 C.ar    1  UNL1       -0.0231
     11 C         -22.3126  -13.7539  -15.9425 C.ar    1  UNL1        0.0320
     12 C         -23.1659  -14.7894  -15.5542 C.ar    1  UNL1        0.1333
     13 O         -22.8235  -16.1077  -15.8468 O.3     1  UNL1       -0.5055
     14 C         -24.3496  -14.4963  -14.8686 C.ar    1  UNL1        0.0363
     15 C         -24.6930  -13.1724  -14.5854 C.ar    1  UNL1       -0.0015
     16 C         -23.8540  -12.1188  -14.9958 C.ar    1  UNL1       -0.0263
     17 C         -24.1655  -10.6549  -14.7802 C.3     1  UNL1        0.0221
     18 C         -25.4932  -10.2225  -14.0617 C.3     1  UNL1        0.0045
     19 C         -25.3550   -9.7667  -12.5932 C.3     1  UNL1        0.0036
     20 C         -24.0749   -8.9067  -12.2822 C.3     1  UNL1        0.0341
     21 C         -23.2947   -9.6628  -11.1526 C.3     1  UNL1        0.0034
     22 H         -24.6125   -6.4001  -10.1986 H       1  UNL1        0.2114
     23 H         -20.0310   -6.9730  -12.5077 H       1  UNL1        0.1023
     24 H         -23.4189  -16.8820  -15.5768 H       1  UNL1        0.2922
     25 C         -26.2345   -6.2274  -13.2558 C.1     1  UNL1       -0.0119
     26 C         -25.3675   -6.7678  -12.6157 C.1     1  UNL1       -0.0525
@<TRIPOS>BOND
     1    25    26    3
     2     1    26    1
     3     1     2    1
     4     1     3    1
     5     3     4    1
     6     4     5    1
     7     4     6    1
     8     6     7    1
     9     7     8    1
    10     8     9    1
    11     9    10    1
    12    10    11   ar
    13    11    12   ar
    14    12    13    1
    15    12    14   ar
    16    14    15   ar
    17    15    16   ar
    18    16    17    1
    19    17    18    1
    20    18    19    1
    21    19    20    1
    22    20    21    1
    23    20     1    1
    24    20     6    1
    25    17     7    1
    26    16    10   ar
    27     2    22    1
    28     5    23    1
    29    13    24    1
