@<TRIPOS>MOLECULE
*****
 45 51 0 0 0
SMALL
GASTEIGER

@<TRIPOS>ATOM
      1 C         -30.0656   46.4673  -11.2435 C.3     1  UNL1        0.0817
      2 C         -28.6411   45.9017  -11.4158 C.3     1  UNL1        0.0252
      3 C         -28.2819   45.2223  -10.0789 C.3     1  UNL1        0.0278
      4 C         -29.3056   45.7353   -9.1340 C.ar    1  UNL1       -0.0248
      5 C         -29.3010   45.6024   -7.7446 C.ar    1  UNL1       -0.0045
      6 C         -30.2776   46.2859   -6.9890 C.ar    1  UNL1       -0.0002
      7 C         -31.2852   47.0168   -7.6615 C.ar    1  UNL1       -0.0003
      8 C         -31.2970   47.0933   -9.0608 C.ar    1  UNL1       -0.0033
      9 C         -30.2775   46.4621   -9.7746 C.ar    1  UNL1       -0.0117
     10 C         -30.9432   48.0918  -12.9843 C.3     1  UNL1        0.1158
     11 N         -31.0229   49.4181  -13.2536 N.3     1  UNL1       -0.2851
     12 C         -30.3431   49.9777  -12.2427 C.3     1  UNL1        0.0910
     13 C         -30.1724   51.3326  -12.0089 C.3     1  UNL1        0.1018
     14 C         -29.4760   51.7041  -10.8516 C.3     1  UNL1        0.3136
     15 N         -28.9583   50.7539   -9.9990 N.am    1  UNL1       -0.1294
     16 C         -29.1137   49.4082  -10.2653 C.2     1  UNL1        0.4047
     17 O         -28.5993   48.5470   -9.5049 O.2     1  UNL1       -0.2174
     18 C         -29.8519   49.0269  -11.3994 C.3     1  UNL1        0.2038
     19 N         -30.2372   47.8050  -11.8491 N.3     1  UNL1       -0.2473
     20 H         -31.9933   49.7323  -13.2598 H       1  UNL1        0.1244
     21 C         -30.5717   46.5407  -14.9053 C.3     1  UNL1        0.0029
     22 C         -31.5784   47.0742  -13.8919 C.3     1  UNL1        0.0326
     23 C         -28.2697   51.2002   -8.7732 C.3     1  UNL1        0.3394
     24 C         -29.1056   51.0051   -7.5150 C.ar    1  UNL1        0.0505
     25 C         -30.4539   50.5896   -7.5900 C.ar    1  UNL1        0.0021
     26 C         -31.1916   50.3466   -6.4303 C.ar    1  UNL1       -0.0001
     27 C         -30.6118   50.5371   -5.1783 C.ar    1  UNL1       -0.0003
     28 C         -29.2981   50.9939   -5.0792 C.ar    1  UNL1       -0.0044
     29 C         -28.5386   51.2481   -6.2353 C.ar    1  UNL1       -0.0193
     30 C         -27.1212   51.7365   -6.0812 C.3     1  UNL1        0.0309
     31 C         -30.2390   46.2815   -5.5030 C.ar    1  UNL1        0.0028
     32 C         -31.4427   46.0516   -4.8174 C.ar    1  UNL1        0.0001
     33 C         -31.4839   46.0565   -3.4275 C.ar    1  UNL1       -0.0002
     34 C         -30.3296   46.3075   -2.6937 C.ar    1  UNL1       -0.0018
     35 C         -29.1059   46.5483   -3.3393 C.ar    1  UNL1        0.0103
     36 C         -29.0448   46.5195   -4.7612 C.ar    1  UNL1        0.0355
     37 C         -27.7543   46.7707   -5.4545 C.ar    1  UNL1        0.1803
     38 N         -27.4260   47.9212   -6.0724 N.ar    1  UNL1       -0.1084
     39 N         -26.1908   47.7344   -6.5161 N.ar    1  UNL1       -0.0229
     40 N         -25.7703   46.5237   -6.1834 N.ar    1  UNL1       -0.0464
     41 N         -26.7307   45.9059   -5.5217 N.ar    1  UNL1       -0.2388
     42 H         -26.6724   44.9433   -5.1287 H       1  UNL1        0.1923
     43 C         -27.9028   46.8991   -2.4935 C.3     1  UNL1        0.1688
     44 O         -27.8348   48.3025   -2.3455 O.3     1  UNL1       -0.3463
     45 C         -26.5245   48.7429   -2.6196 C.3     1  UNL1        0.1746
@<TRIPOS>BOND
     1    21    22    1
     2    22    10    1
     3    10    11    1
     4    11    12    1
     5    12    13    1
     6    13    14    1
     7    14    15    1
     8    15    23    1
     9    23    24    1
    10    24    25   ar
    11    25    26   ar
    12    26    27   ar
    13    27    28   ar
    14    28    29   ar
    15    29    30    1
    16    15    16    1
    17    16    17    2
    18    16    18    1
    19    18    19    1
    20    19     1    1
    21     1     2    1
    22     2     3    1
    23     3     4    1
    24     4     5   ar
    25     5     6   ar
    26     6    31    1
    27    31    32   ar
    28    32    33   ar
    29    33    34   ar
    30    34    35   ar
    31    35    43    1
    32    43    44    1
    33    44    45    1
    34    35    36   ar
    35    36    37    1
    36    37    38   ar
    37    38    39   ar
    38    39    40   ar
    39    40    41   ar
    40     6     7   ar
    41     7     8   ar
    42     8     9   ar
    43    19    10    1
    44     9     1    1
    45    18    12    1
    46     9     4   ar
    47    29    24   ar
    48    36    31   ar
    49    41    37   ar
    50    41    42    1
    51    11    20    1
@<TRIPOS>MOLECULE
*****
 45 51 0 0 0
SMALL
GASTEIGER

@<TRIPOS>ATOM
      1 C         -26.0252   51.2101   -7.3758 C.3     1  UNL1        0.0817
      2 C         -27.0826   52.2093   -6.8637 C.3     1  UNL1        0.0252
      3 C         -27.9841   51.4228   -5.8908 C.3     1  UNL1        0.0278
      4 C         -27.6542   50.0027   -6.1709 C.ar    1  UNL1       -0.0248
      5 C         -28.3472   48.8792   -5.7177 C.ar    1  UNL1       -0.0045
      6 C         -27.9824   47.6069   -6.2077 C.ar    1  UNL1       -0.0002
      7 C         -26.8718   47.4934   -7.0768 C.ar    1  UNL1       -0.0003
      8 C         -26.1607   48.6326   -7.4775 C.ar    1  UNL1       -0.0033
      9 C         -26.5897   49.8822   -7.0286 C.ar    1  UNL1       -0.0117
     10 C         -26.6612   51.4794   -9.8176 C.3     1  UNL1        0.1158
     11 N         -26.1155   51.7069  -11.0376 N.3     1  UNL1       -0.2851
     12 C         -24.7992   51.7321  -10.7850 C.3     1  UNL1        0.0910
     13 C         -23.7862   51.9928  -11.6934 C.3     1  UNL1        0.1018
     14 C         -22.4749   52.0329  -11.2024 C.3     1  UNL1        0.3136
     15 N         -22.2073   51.7927   -9.8726 N.am    1  UNL1       -0.1294
     16 C         -23.2282   51.5055   -8.9888 C.2     1  UNL1        0.4047
     17 O         -22.9708   51.2433   -7.7848 O.2     1  UNL1       -0.2174
     18 C         -24.5514   51.5099   -9.4638 C.3     1  UNL1        0.2038
     19 N         -25.7362   51.3578   -8.8181 N.3     1  UNL1       -0.2473
     20 H         -26.4318   52.5984  -11.4192 H       1  UNL1        0.1244
     21 C         -28.6567   50.0089  -10.1174 C.3     1  UNL1        0.0029
     22 C         -28.1507   51.3659   -9.6405 C.3     1  UNL1        0.0326
     23 C         -20.8130   51.8885   -9.4007 C.3     1  UNL1        0.3394
     24 C         -20.3843   53.3172   -9.0932 C.ar    1  UNL1        0.0505
     25 C         -20.7563   54.3895   -9.9347 C.ar    1  UNL1        0.0021
     26 C         -20.4179   55.7037   -9.6083 C.ar    1  UNL1       -0.0001
     27 C         -19.6830   55.9724   -8.4562 C.ar    1  UNL1       -0.0003
     28 C         -19.2624   54.9261   -7.6360 C.ar    1  UNL1       -0.0044
     29 C         -19.5897   53.5945   -7.9486 C.ar    1  UNL1       -0.0193
     30 C         -19.1181   52.4954   -7.0316 C.3     1  UNL1        0.0309
     31 C         -28.7693   46.3956   -5.8568 C.ar    1  UNL1        0.0028
     32 C         -29.3376   45.6569   -6.9071 C.ar    1  UNL1        0.0001
     33 C         -30.1051   44.5262   -6.6502 C.ar    1  UNL1       -0.0002
     34 C         -30.3353   44.1191   -5.3405 C.ar    1  UNL1       -0.0018
     35 C         -29.7908   44.8322   -4.2601 C.ar    1  UNL1        0.0103
     36 C         -28.9812   45.9760   -4.5107 C.ar    1  UNL1        0.0355
     37 C         -28.3982   46.7366   -3.3745 C.ar    1  UNL1        0.1803
     38 N         -27.0869   46.7792   -3.0715 N.ar    1  UNL1       -0.1084
     39 N         -27.0002   47.5905   -2.0267 N.ar    1  UNL1       -0.0229
     40 N         -28.2038   48.0352   -1.6999 N.ar    1  UNL1       -0.0464
     41 N         -29.0899   47.5139   -2.5275 N.ar    1  UNL1       -0.2388
     42 H         -30.1147   47.6983   -2.5115 H       1  UNL1        0.1923
     43 C         -30.1442   44.3935   -2.8571 C.3     1  UNL1        0.1688
     44 O         -31.0498   45.3218   -2.2965 O.3     1  UNL1       -0.3463
     45 C         -31.5282   44.8299   -1.0656 C.3     1  UNL1        0.1746
@<TRIPOS>BOND
     1    21    22    1
     2    22    10    1
     3    10    11    1
     4    11    12    1
     5    12    13    1
     6    13    14    1
     7    14    15    1
     8    15    23    1
     9    23    24    1
    10    24    25   ar
    11    25    26   ar
    12    26    27   ar
    13    27    28   ar
    14    28    29   ar
    15    29    30    1
    16    15    16    1
    17    16    17    2
    18    16    18    1
    19    18    19    1
    20    19     1    1
    21     1     2    1
    22     2     3    1
    23     3     4    1
    24     4     5   ar
    25     5     6   ar
    26     6    31    1
    27    31    32   ar
    28    32    33   ar
    29    33    34   ar
    30    34    35   ar
    31    35    43    1
    32    43    44    1
    33    44    45    1
    34    35    36   ar
    35    36    37    1
    36    37    38   ar
    37    38    39   ar
    38    39    40   ar
    39    40    41   ar
    40     6     7   ar
    41     7     8   ar
    42     8     9   ar
    43    19    10    1
    44     9     1    1
    45    18    12    1
    46     9     4   ar
    47    29    24   ar
    48    36    31   ar
    49    41    37   ar
    50    41    42    1
    51    11    20    1
@<TRIPOS>MOLECULE
*****
 45 51 0 0 0
SMALL
GASTEIGER

@<TRIPOS>ATOM
      1 C         -25.5364   50.9929   -7.7224 C.3     1  UNL1        0.0817
      2 C         -26.6075   52.0389   -7.3516 C.3     1  UNL1        0.0252
      3 C         -27.6389   51.3065   -6.4697 C.3     1  UNL1        0.0278
      4 C         -27.3312   49.8699   -6.6827 C.ar    1  UNL1       -0.0248
      5 C         -28.1101   48.7814   -6.2870 C.ar    1  UNL1       -0.0045
      6 C         -27.7391   47.4862   -6.7076 C.ar    1  UNL1       -0.0002
      7 C         -26.5439   47.3148   -7.4450 C.ar    1  UNL1       -0.0003
      8 C         -25.7523   48.4196   -7.7867 C.ar    1  UNL1       -0.0033
      9 C         -26.1833   49.6933   -7.4136 C.ar    1  UNL1       -0.0117
     10 C         -25.8466   50.8668  -10.2378 C.3     1  UNL1        0.1158
     11 N         -25.2052   51.1377  -11.4011 N.3     1  UNL1       -0.2851
     12 C         -23.9979   51.5562  -10.9956 C.3     1  UNL1        0.0910
     13 C         -22.9679   52.0172  -11.7993 C.3     1  UNL1        0.1018
     14 C         -21.8053   52.4684  -11.1613 C.3     1  UNL1        0.3136
     15 N         -21.6862   52.4252   -9.7895 N.am    1  UNL1       -0.1294
     16 C         -22.7129   51.9347   -9.0079 C.2     1  UNL1        0.4047
     17 O         -22.5785   51.8572   -7.7586 O.2     1  UNL1       -0.2174
     18 C         -23.9012   51.5240   -9.6369 C.3     1  UNL1        0.2038
     19 N         -25.0843   51.0962   -9.1261 N.3     1  UNL1       -0.2473
     20 H         -25.6889   51.8679  -11.9239 H       1  UNL1        0.1244
     21 C         -28.2461   51.4512  -10.6045 C.3     1  UNL1        0.0029
     22 C         -27.2594   50.3506  -10.2303 C.3     1  UNL1        0.0326
     23 C         -20.4567   52.9515   -9.1671 C.3     1  UNL1        0.3394
     24 C         -19.1861   52.4616   -9.8493 C.ar    1  UNL1        0.0505
     25 C         -19.0438   52.5133  -11.2540 C.ar    1  UNL1        0.0021
     26 C         -17.8500   52.1269  -11.8654 C.ar    1  UNL1       -0.0001
     27 C         -16.7882   51.6585  -11.0954 C.ar    1  UNL1       -0.0003
     28 C         -16.9224   51.5522   -9.7116 C.ar    1  UNL1       -0.0044
     29 C         -18.1179   51.9328   -9.0761 C.ar    1  UNL1       -0.0193
     30 C         -18.2175   51.8053   -7.5778 C.3     1  UNL1        0.0309
     31 C         -28.6031   46.3107   -6.4224 C.ar    1  UNL1        0.0028
     32 C         -29.2981   45.7327   -7.4970 C.ar    1  UNL1        0.0001
     33 C         -30.1417   44.6452   -7.2985 C.ar    1  UNL1       -0.0002
     34 C         -30.3225   44.1232   -6.0223 C.ar    1  UNL1       -0.0018
     35 C         -29.6515   44.6747   -4.9186 C.ar    1  UNL1        0.0103
     36 C         -28.7644   45.7710   -5.1126 C.ar    1  UNL1        0.0355
     37 C         -28.0476   46.3608   -3.9517 C.ar    1  UNL1        0.1803
     38 N         -26.7486   46.1521   -3.6647 N.ar    1  UNL1       -0.1084
     39 N         -26.5113   46.8854   -2.5861 N.ar    1  UNL1       -0.0229
     40 N         -27.6129   47.5244   -2.2238 N.ar    1  UNL1       -0.0464
     41 N         -28.5830   47.2102   -3.0617 N.ar    1  UNL1       -0.2388
     42 H         -29.5575   47.5755   -3.0238 H       1  UNL1        0.1923
     43 C         -29.9516   44.1214   -3.5440 C.3     1  UNL1        0.1688
     44 O         -30.6688   45.0871   -2.8030 O.3     1  UNL1       -0.3463
     45 C         -31.1668   44.5014   -1.6220 C.3     1  UNL1        0.1746
@<TRIPOS>BOND
     1    21    22    1
     2    22    10    1
     3    10    11    1
     4    11    12    1
     5    12    13    1
     6    13    14    1
     7    14    15    1
     8    15    23    1
     9    23    24    1
    10    24    25   ar
    11    25    26   ar
    12    26    27   ar
    13    27    28   ar
    14    28    29   ar
    15    29    30    1
    16    15    16    1
    17    16    17    2
    18    16    18    1
    19    18    19    1
    20    19     1    1
    21     1     2    1
    22     2     3    1
    23     3     4    1
    24     4     5   ar
    25     5     6   ar
    26     6    31    1
    27    31    32   ar
    28    32    33   ar
    29    33    34   ar
    30    34    35   ar
    31    35    43    1
    32    43    44    1
    33    44    45    1
    34    35    36   ar
    35    36    37    1
    36    37    38   ar
    37    38    39   ar
    38    39    40   ar
    39    40    41   ar
    40     6     7   ar
    41     7     8   ar
    42     8     9   ar
    43    19    10    1
    44     9     1    1
    45    18    12    1
    46     9     4   ar
    47    29    24   ar
    48    36    31   ar
    49    41    37   ar
    50    41    42    1
    51    11    20    1
@<TRIPOS>MOLECULE
*****
 45 51 0 0 0
SMALL
GASTEIGER

@<TRIPOS>ATOM
      1 C         -26.3754   51.4660   -7.6853 C.3     1  UNL1        0.0817
      2 C         -27.2318   52.4423   -6.8532 C.3     1  UNL1        0.0252
      3 C         -27.6038   51.6935   -5.5575 C.3     1  UNL1        0.0278
      4 C         -27.2842   50.2762   -5.8627 C.ar    1  UNL1       -0.0248
      5 C         -27.6393   49.1584   -5.1061 C.ar    1  UNL1       -0.0045
      6 C         -27.3834   47.8714   -5.6259 C.ar    1  UNL1       -0.0002
      7 C         -26.6984   47.7471   -6.8575 C.ar    1  UNL1       -0.0003
      8 C         -26.3075   48.8862   -7.5741 C.ar    1  UNL1       -0.0033
      9 C         -26.6362   50.1432   -7.0650 C.ar    1  UNL1       -0.0117
     10 C         -25.8012   51.7218  -10.1438 C.3     1  UNL1        0.1158
     11 N         -26.3447   51.5950  -11.3793 N.3     1  UNL1       -0.2851
     12 C         -27.6217   51.2788  -11.1218 C.3     1  UNL1        0.0910
     13 C         -28.6049   50.9803  -12.0512 C.3     1  UNL1        0.1018
     14 C         -29.8645   50.6121  -11.5610 C.3     1  UNL1        0.3136
     15 N         -30.1172   50.5784  -10.2073 N.am    1  UNL1       -0.1294
     16 C         -29.1322   50.9080   -9.2979 C.2     1  UNL1        0.4047
     17 O         -29.3843   50.9179   -8.0646 O.2     1  UNL1       -0.2174
     18 C         -27.8521   51.2328   -9.7797 C.3     1  UNL1        0.2038
     19 N         -26.6909   51.5014   -9.1292 N.3     1  UNL1       -0.2473
     20 H         -25.8838   50.8538  -11.9072 H       1  UNL1        0.1244
     21 C         -23.5020   51.5205  -11.0960 C.3     1  UNL1        0.0029
     22 C         -24.3530   52.0869   -9.9647 C.3     1  UNL1        0.0326
     23 C         -31.4486   50.1435   -9.7446 C.3     1  UNL1        0.3394
     24 C         -31.3889   49.2440   -8.5170 C.ar    1  UNL1        0.0505
     25 C         -31.5476   49.7710   -7.2157 C.ar    1  UNL1        0.0021
     26 C         -31.5606   48.9303   -6.1016 C.ar    1  UNL1       -0.0001
     27 C         -31.3902   47.5569   -6.2583 C.ar    1  UNL1       -0.0003
     28 C         -31.1827   47.0192   -7.5280 C.ar    1  UNL1       -0.0044
     29 C         -31.1626   47.8490   -8.6633 C.ar    1  UNL1       -0.0193
     30 C         -30.9396   47.2245  -10.0165 C.3     1  UNL1        0.0309
     31 C         -27.8568   46.6516   -4.9204 C.ar    1  UNL1        0.0028
     32 C         -28.5380   45.6822   -5.6740 C.ar    1  UNL1        0.0001
     33 C         -29.0285   44.5275   -5.0742 C.ar    1  UNL1       -0.0002
     34 C         -28.8645   44.3243   -3.7083 C.ar    1  UNL1       -0.0018
     35 C         -28.1947   45.2711   -2.9162 C.ar    1  UNL1        0.0103
     36 C         -27.6644   46.4446   -3.5229 C.ar    1  UNL1        0.0355
     37 C         -26.9517   47.4520   -2.6943 C.ar    1  UNL1        0.1803
     38 N         -25.6350   47.7213   -2.7769 N.ar    1  UNL1       -0.1084
     39 N         -25.4264   48.6958   -1.9026 N.ar    1  UNL1       -0.0229
     40 N         -26.5645   49.0197   -1.3083 N.ar    1  UNL1       -0.0464
     41 N         -27.5279   48.2551   -1.7869 N.ar    1  UNL1       -0.2388
     42 H         -28.5302   48.2984   -1.5075 H       1  UNL1        0.1923
     43 C         -28.1207   45.0381   -1.4242 C.3     1  UNL1        0.1688
     44 O         -28.7819   46.0940   -0.7578 O.3     1  UNL1       -0.3463
     45 C         -30.1286   45.7428   -0.5372 C.3     1  UNL1        0.1746
@<TRIPOS>BOND
     1    21    22    1
     2    22    10    1
     3    10    11    1
     4    11    12    1
     5    12    13    1
     6    13    14    1
     7    14    15    1
     8    15    23    1
     9    23    24    1
    10    24    25   ar
    11    25    26   ar
    12    26    27   ar
    13    27    28   ar
    14    28    29   ar
    15    29    30    1
    16    15    16    1
    17    16    17    2
    18    16    18    1
    19    18    19    1
    20    19     1    1
    21     1     2    1
    22     2     3    1
    23     3     4    1
    24     4     5   ar
    25     5     6   ar
    26     6    31    1
    27    31    32   ar
    28    32    33   ar
    29    33    34   ar
    30    34    35   ar
    31    35    43    1
    32    43    44    1
    33    44    45    1
    34    35    36   ar
    35    36    37    1
    36    37    38   ar
    37    38    39   ar
    38    39    40   ar
    39    40    41   ar
    40     6     7   ar
    41     7     8   ar
    42     8     9   ar
    43    19    10    1
    44     9     1    1
    45    18    12    1
    46     9     4   ar
    47    29    24   ar
    48    36    31   ar
    49    41    37   ar
    50    41    42    1
    51    11    20    1
@<TRIPOS>MOLECULE
*****
 45 51 0 0 0
SMALL
GASTEIGER

@<TRIPOS>ATOM
      1 C         -26.3016   50.9526   -7.7601 C.3     1  UNL1        0.0817
      2 C         -27.0882   52.0072   -6.9552 C.3     1  UNL1        0.0252
      3 C         -27.7822   51.2452   -5.8081 C.3     1  UNL1        0.0278
      4 C         -27.6769   49.8210   -6.2136 C.ar    1  UNL1       -0.0248
      5 C         -28.3372   48.7365   -5.6340 C.ar    1  UNL1       -0.0045
      6 C         -28.2376   47.4686   -6.2460 C.ar    1  UNL1       -0.0002
      7 C         -27.4046   47.3114   -7.3786 C.ar    1  UNL1       -0.0003
      8 C         -26.7118   48.4067   -7.9118 C.ar    1  UNL1       -0.0033
      9 C         -26.8858   49.6600   -7.3234 C.ar    1  UNL1       -0.0117
     10 C         -25.3283   51.4140  -10.0578 C.3     1  UNL1        0.1158
     11 N         -25.6742   51.4562  -11.3679 N.3     1  UNL1       -0.2851
     12 C         -26.9925   51.2138  -11.3452 C.3     1  UNL1        0.0910
     13 C         -27.8308   51.0881  -12.4410 C.3     1  UNL1        0.1018
     14 C         -29.1720   50.7689  -12.1931 C.3     1  UNL1        0.3136
     15 N         -29.6391   50.6163  -10.9062 N.am    1  UNL1       -0.1294
     16 C         -28.7940   50.7748   -9.8261 C.2     1  UNL1        0.4047
     17 O         -29.2386   50.6777   -8.6524 O.2     1  UNL1       -0.2174
     18 C         -27.4364   51.0485  -10.0676 C.3     1  UNL1        0.2038
     19 N         -26.3800   51.1596   -9.2218 N.3     1  UNL1       -0.2473
     20 H         -25.1798   50.7400  -11.8999 H       1  UNL1        0.1244
     21 C         -23.0107   51.9522  -10.8145 C.3     1  UNL1        0.0029
     22 C         -23.9082   51.6471   -9.6202 C.3     1  UNL1        0.0326
     23 C         -31.0508   50.2393  -10.7036 C.3     1  UNL1        0.3394
     24 C         -31.2756   48.7332  -10.7309 C.ar    1  UNL1        0.0505
     25 C         -31.3238   48.0229  -11.9513 C.ar    1  UNL1        0.0021
     26 C         -31.4610   46.6340  -11.9641 C.ar    1  UNL1       -0.0001
     27 C         -31.5787   45.9306  -10.7678 C.ar    1  UNL1       -0.0003
     28 C         -31.5833   46.6147   -9.5528 C.ar    1  UNL1       -0.0044
     29 C         -31.4498   48.0144   -9.5178 C.ar    1  UNL1       -0.0193
     30 C         -31.4554   48.7122   -8.1821 C.3     1  UNL1        0.0309
     31 C         -29.0232   46.3110   -5.7436 C.ar    1  UNL1        0.0028
     32 C         -29.7433   45.5522   -6.6804 C.ar    1  UNL1        0.0001
     33 C         -30.5177   44.4699   -6.2775 C.ar    1  UNL1       -0.0002
     34 C         -30.6033   44.1329   -4.9310 C.ar    1  UNL1       -0.0018
     35 C         -29.9042   44.8686   -3.9603 C.ar    1  UNL1        0.0103
     36 C         -29.0867   45.9623   -4.3625 C.ar    1  UNL1        0.0355
     37 C         -28.3408   46.7463   -3.3435 C.ar    1  UNL1        0.1803
     38 N         -27.0005   46.7586   -3.2142 N.ar    1  UNL1       -0.1084
     39 N         -26.7571   47.6055   -2.2237 N.ar    1  UNL1       -0.0229
     40 N         -27.8958   48.1001   -1.7631 N.ar    1  UNL1       -0.0464
     41 N         -28.8956   47.5763   -2.4472 N.ar    1  UNL1       -0.2388
     42 H         -29.9043   47.7936   -2.3069 H       1  UNL1        0.1923
     43 C         -30.1019   44.5098   -2.5049 C.3     1  UNL1        0.1688
     44 O         -30.8667   45.5197   -1.8793 O.3     1  UNL1       -0.3463
     45 C         -31.2692   45.0832   -0.6013 C.3     1  UNL1        0.1746
@<TRIPOS>BOND
     1    21    22    1
     2    22    10    1
     3    10    11    1
     4    11    12    1
     5    12    13    1
     6    13    14    1
     7    14    15    1
     8    15    23    1
     9    23    24    1
    10    24    25   ar
    11    25    26   ar
    12    26    27   ar
    13    27    28   ar
    14    28    29   ar
    15    29    30    1
    16    15    16    1
    17    16    17    2
    18    16    18    1
    19    18    19    1
    20    19     1    1
    21     1     2    1
    22     2     3    1
    23     3     4    1
    24     4     5   ar
    25     5     6   ar
    26     6    31    1
    27    31    32   ar
    28    32    33   ar
    29    33    34   ar
    30    34    35   ar
    31    35    43    1
    32    43    44    1
    33    44    45    1
    34    35    36   ar
    35    36    37    1
    36    37    38   ar
    37    38    39   ar
    38    39    40   ar
    39    40    41   ar
    40     6     7   ar
    41     7     8   ar
    42     8     9   ar
    43    19    10    1
    44     9     1    1
    45    18    12    1
    46     9     4   ar
    47    29    24   ar
    48    36    31   ar
    49    41    37   ar
    50    41    42    1
    51    11    20    1
@<TRIPOS>MOLECULE
*****
 45 51 0 0 0
SMALL
GASTEIGER

@<TRIPOS>ATOM
      1 C         -30.7591   48.2877   -8.5252 C.3     1  UNL1        0.0817
      2 C         -31.3094   49.2809   -7.4813 C.3     1  UNL1        0.0252
      3 C         -30.3589   50.4951   -7.4978 C.3     1  UNL1        0.0278
      4 C         -29.1655   50.0014   -8.2299 C.ar    1  UNL1       -0.0248
      5 C         -27.9263   50.6354   -8.3310 C.ar    1  UNL1       -0.0045
      6 C         -26.8543   49.9486   -8.9403 C.ar    1  UNL1       -0.0002
      7 C         -27.0842   48.6734   -9.5082 C.ar    1  UNL1       -0.0003
      8 C         -28.3516   48.0794   -9.4377 C.ar    1  UNL1       -0.0033
      9 C         -29.3721   48.7562   -8.7686 C.ar    1  UNL1       -0.0117
     10 C         -31.1356   45.8006   -8.8598 C.3     1  UNL1        0.1158
     11 N         -31.0187   44.6134   -8.2157 N.3     1  UNL1       -0.2851
     12 C         -30.6157   44.9691   -6.9876 C.3     1  UNL1        0.0910
     13 C         -30.2899   44.1183   -5.9438 C.3     1  UNL1        0.1018
     14 C         -29.8279   44.7019   -4.7571 C.3     1  UNL1        0.3136
     15 N         -29.7314   46.0701   -4.6296 N.am    1  UNL1       -0.1294
     16 C         -30.0890   46.9021   -5.6716 C.2     1  UNL1        0.4047
     17 O         -30.0404   48.1521   -5.5314 O.2     1  UNL1       -0.2174
     18 C         -30.5088   46.3233   -6.8821 C.3     1  UNL1        0.2038
     19 N         -30.8255   46.8797   -8.0794 N.3     1  UNL1       -0.2473
     20 H         -30.3263   44.0177   -8.6696 H       1  UNL1        0.1244
     21 C         -30.3973   45.7293  -11.2439 C.3     1  UNL1        0.0029
     22 C         -31.5826   45.8665  -10.2945 C.3     1  UNL1        0.0326
     23 C         -29.1995   46.6300   -3.3728 C.3     1  UNL1        0.3394
     24 C         -27.7661   46.2008   -3.0884 C.ar    1  UNL1        0.0505
     25 C         -27.4839   44.9781   -2.4392 C.ar    1  UNL1        0.0021
     26 C         -26.1664   44.5604   -2.2446 C.ar    1  UNL1       -0.0001
     27 C         -25.1080   45.3610   -2.6674 C.ar    1  UNL1       -0.0003
     28 C         -25.3611   46.5945   -3.2663 C.ar    1  UNL1       -0.0044
     29 C         -26.6811   47.0356   -3.4685 C.ar    1  UNL1       -0.0193
     30 C         -26.9083   48.3736   -4.1238 C.3     1  UNL1        0.0309
     31 C         -25.4849   50.5265   -8.9583 C.ar    1  UNL1        0.0028
     32 C         -24.7141   50.4206   -7.7894 C.ar    1  UNL1        0.0001
     33 C         -23.4334   50.9590   -7.7283 C.ar    1  UNL1       -0.0002
     34 C         -22.9023   51.6282   -8.8255 C.ar    1  UNL1       -0.0018
     35 C         -23.6412   51.7622  -10.0123 C.ar    1  UNL1        0.0103
     36 C         -24.9430   51.1924  -10.0967 C.ar    1  UNL1        0.0355
     37 C         -25.7327   51.3264  -11.3488 C.ar    1  UNL1        0.1803
     38 N         -25.2563   51.0908  -12.5860 N.ar    1  UNL1       -0.1084
     39 N         -26.2868   51.2885  -13.3962 N.ar    1  UNL1       -0.0229
     40 N         -27.3560   51.6264  -12.6918 N.ar    1  UNL1       -0.0464
     41 N         -27.0315   51.6568  -11.4129 N.ar    1  UNL1       -0.2388
     42 H         -27.6795   51.8820  -10.6293 H       1  UNL1        0.1923
     43 C         -23.0474   52.5725  -11.1421 C.3     1  UNL1        0.1688
     44 O         -21.6385   52.4832  -11.0848 O.3     1  UNL1       -0.3463
     45 C         -21.0683   53.5397  -11.8226 C.3     1  UNL1        0.1746
@<TRIPOS>BOND
     1    21    22    1
     2    22    10    1
     3    10    11    1
     4    11    12    1
     5    12    13    1
     6    13    14    1
     7    14    15    1
     8    15    23    1
     9    23    24    1
    10    24    25   ar
    11    25    26   ar
    12    26    27   ar
    13    27    28   ar
    14    28    29   ar
    15    29    30    1
    16    15    16    1
    17    16    17    2
    18    16    18    1
    19    18    19    1
    20    19     1    1
    21     1     2    1
    22     2     3    1
    23     3     4    1
    24     4     5   ar
    25     5     6   ar
    26     6    31    1
    27    31    32   ar
    28    32    33   ar
    29    33    34   ar
    30    34    35   ar
    31    35    43    1
    32    43    44    1
    33    44    45    1
    34    35    36   ar
    35    36    37    1
    36    37    38   ar
    37    38    39   ar
    38    39    40   ar
    39    40    41   ar
    40     6     7   ar
    41     7     8   ar
    42     8     9   ar
    43    19    10    1
    44     9     1    1
    45    18    12    1
    46     9     4   ar
    47    29    24   ar
    48    36    31   ar
    49    41    37   ar
    50    41    42    1
    51    11    20    1
@<TRIPOS>MOLECULE
*****
 45 51 0 0 0
SMALL
GASTEIGER

@<TRIPOS>ATOM
      1 C         -30.7264   47.7397   -9.3293 C.3     1  UNL1        0.0817
      2 C         -31.5786   49.0240   -9.3854 C.3     1  UNL1        0.0252
      3 C         -30.6215   50.1593   -9.8014 C.3     1  UNL1        0.0278
      4 C         -29.2711   49.5760   -9.6011 C.ar    1  UNL1       -0.0248
      5 C         -28.0545   50.2596   -9.6223 C.ar    1  UNL1       -0.0045
      6 C         -26.8768   49.5713   -9.2600 C.ar    1  UNL1       -0.0002
      7 C         -26.9464   48.1886   -8.9686 C.ar    1  UNL1       -0.0003
      8 C         -28.1739   47.5134   -9.0034 C.ar    1  UNL1       -0.0033
      9 C         -29.3289   48.2386   -9.2990 C.ar    1  UNL1       -0.0117
     10 C         -31.3577   45.5395   -8.2340 C.3     1  UNL1        0.1158
     11 N         -31.5175   44.9682   -7.0149 N.3     1  UNL1       -0.2851
     12 C         -31.3033   45.9857   -6.1688 C.3     1  UNL1        0.0910
     13 C         -31.2888   45.9233   -4.7849 C.3     1  UNL1        0.1018
     14 C         -30.9796   47.0997   -4.0900 C.3     1  UNL1        0.3136
     15 N         -30.7297   48.2760   -4.7619 N.am    1  UNL1       -0.1294
     16 C         -30.7781   48.3243   -6.1407 C.2     1  UNL1        0.4047
     17 O         -30.5926   49.4130   -6.7448 O.2     1  UNL1       -0.2174
     18 C         -31.0410   47.1378   -6.8474 C.3     1  UNL1        0.2038
     19 N         -31.0572   46.8722   -8.1789 N.3     1  UNL1       -0.2473
     20 H         -30.8378   44.2219   -6.8689 H       1  UNL1        0.1244
     21 C         -30.3821   45.0134  -10.4712 C.3     1  UNL1        0.0029
     22 C         -31.5216   44.7379   -9.4962 C.3     1  UNL1        0.0326
     23 C         -30.3684   49.4753   -3.9827 C.3     1  UNL1        0.3394
     24 C         -29.1349   50.1876   -4.5219 C.ar    1  UNL1        0.0505
     25 C         -27.8568   49.5893   -4.4539 C.ar    1  UNL1        0.0021
     26 C         -26.7432   50.2187   -5.0125 C.ar    1  UNL1       -0.0001
     27 C         -26.8751   51.4630   -5.6240 C.ar    1  UNL1       -0.0003
     28 C         -28.1173   52.0955   -5.6598 C.ar    1  UNL1       -0.0044
     29 C         -29.2513   51.4802   -5.0998 C.ar    1  UNL1       -0.0193
     30 C         -30.5748   52.1980   -5.1651 C.3     1  UNL1        0.0309
     31 C         -25.5777   50.2840   -9.1421 C.ar    1  UNL1        0.0028
     32 C         -24.8478   50.1226   -7.9534 C.ar    1  UNL1        0.0001
     33 C         -23.6358   50.7781   -7.7661 C.ar    1  UNL1       -0.0002
     34 C         -23.1357   51.6207   -8.7529 C.ar    1  UNL1       -0.0018
     35 C         -23.8363   51.8152   -9.9545 C.ar    1  UNL1        0.0103
     36 C         -25.0649   51.1291  -10.1696 C.ar    1  UNL1        0.0355
     37 C         -25.8133   51.3261  -11.4386 C.ar    1  UNL1        0.1803
     38 N         -25.3360   51.0375  -12.6642 N.ar    1  UNL1       -0.1084
     39 N         -26.3271   51.3236  -13.4968 N.ar    1  UNL1       -0.0229
     40 N         -27.3741   51.7650  -12.8169 N.ar    1  UNL1       -0.0464
     41 N         -27.0742   51.7753  -11.5317 N.ar    1  UNL1       -0.2388
     42 H         -27.7141   52.0659  -10.7632 H       1  UNL1        0.1923
     43 C         -23.2878   52.8074  -10.9548 C.3     1  UNL1        0.1688
     44 O         -22.0737   52.3114  -11.4802 O.3     1  UNL1       -0.3463
     45 C         -21.0548   53.2674  -11.2970 C.3     1  UNL1        0.1746
@<TRIPOS>BOND
     1    21    22    1
     2    22    10    1
     3    10    11    1
     4    11    12    1
     5    12    13    1
     6    13    14    1
     7    14    15    1
     8    15    23    1
     9    23    24    1
    10    24    25   ar
    11    25    26   ar
    12    26    27   ar
    13    27    28   ar
    14    28    29   ar
    15    29    30    1
    16    15    16    1
    17    16    17    2
    18    16    18    1
    19    18    19    1
    20    19     1    1
    21     1     2    1
    22     2     3    1
    23     3     4    1
    24     4     5   ar
    25     5     6   ar
    26     6    31    1
    27    31    32   ar
    28    32    33   ar
    29    33    34   ar
    30    34    35   ar
    31    35    43    1
    32    43    44    1
    33    44    45    1
    34    35    36   ar
    35    36    37    1
    36    37    38   ar
    37    38    39   ar
    38    39    40   ar
    39    40    41   ar
    40     6     7   ar
    41     7     8   ar
    42     8     9   ar
    43    19    10    1
    44     9     1    1
    45    18    12    1
    46     9     4   ar
    47    29    24   ar
    48    36    31   ar
    49    41    37   ar
    50    41    42    1
    51    11    20    1
@<TRIPOS>MOLECULE
*****
 45 51 0 0 0
SMALL
GASTEIGER

@<TRIPOS>ATOM
      1 C         -25.7178   51.7522   -7.7624 C.3     1  UNL1        0.0817
      2 C         -26.9990   52.5833   -7.5460 C.3     1  UNL1        0.0252
      3 C         -27.7918   51.8718   -6.4310 C.3     1  UNL1        0.0278
      4 C         -27.1503   50.5363   -6.3366 C.ar    1  UNL1       -0.0248
      5 C         -27.6272   49.4285   -5.6342 C.ar    1  UNL1       -0.0045
      6 C         -26.9656   48.1902   -5.7790 C.ar    1  UNL1       -0.0002
      7 C         -25.7891   48.1226   -6.5619 C.ar    1  UNL1       -0.0003
      8 C         -25.3021   49.2618   -7.2169 C.ar    1  UNL1       -0.0033
      9 C         -26.0182   50.4545   -7.1078 C.ar    1  UNL1       -0.0117
     10 C         -26.2189   51.4916  -10.2363 C.3     1  UNL1        0.1158
     11 N         -25.6097   51.4835  -11.4475 N.3     1  UNL1       -0.2851
     12 C         -24.3111   51.6076  -11.1385 C.3     1  UNL1        0.0910
     13 C         -23.2543   51.7127  -12.0282 C.3     1  UNL1        0.1018
     14 C         -21.9748   51.9001  -11.4896 C.3     1  UNL1        0.3136
     15 N         -21.7783   51.9476  -10.1269 N.am    1  UNL1       -0.1294
     16 C         -22.8409   51.8113   -9.2563 C.2     1  UNL1        0.4047
     17 O         -22.6467   51.8111   -8.0125 O.2     1  UNL1       -0.2174
     18 C         -24.1343   51.6703   -9.7890 C.3     1  UNL1        0.2038
     19 N         -25.3501   51.6112   -9.1873 N.3     1  UNL1       -0.2473
     20 H         -25.9255   52.2658  -12.0208 H       1  UNL1        0.1244
     21 C         -28.3718   51.3335  -11.4907 C.3     1  UNL1        0.0029
     22 C         -27.7128   51.3632  -10.1161 C.3     1  UNL1        0.0326
     23 C         -20.4162   52.1885   -9.6144 C.3     1  UNL1        0.3394
     24 C         -20.1861   53.6325   -9.1882 C.ar    1  UNL1        0.0505
     25 C         -20.5355   54.7090  -10.0339 C.ar    1  UNL1        0.0021
     26 C         -20.3853   56.0296   -9.6076 C.ar    1  UNL1       -0.0001
     27 C         -19.8619   56.3034   -8.3463 C.ar    1  UNL1       -0.0003
     28 C         -19.4642   55.2584   -7.5132 C.ar    1  UNL1       -0.0044
     29 C         -19.6037   53.9208   -7.9248 C.ar    1  UNL1       -0.0193
     30 C         -19.1649   52.8230   -6.9903 C.3     1  UNL1        0.0309
     31 C         -27.5073   46.9540   -5.1561 C.ar    1  UNL1        0.0028
     32 C         -28.2520   46.0837   -5.9684 C.ar    1  UNL1        0.0001
     33 C         -28.8076   44.9209   -5.4461 C.ar    1  UNL1       -0.0002
     34 C         -28.6464   44.6113   -4.1000 C.ar    1  UNL1       -0.0018
     35 C         -27.9142   45.4570   -3.2508 C.ar    1  UNL1        0.0103
     36 C         -27.3177   46.6366   -3.7791 C.ar    1  UNL1        0.0355
     37 C         -26.5388   47.5375   -2.8896 C.ar    1  UNL1        0.1803
     38 N         -27.0504   48.5917   -2.2263 N.ar    1  UNL1       -0.1084
     39 N         -26.0363   49.0873   -1.5310 N.ar    1  UNL1       -0.0229
     40 N         -24.9458   48.3688   -1.7496 N.ar    1  UNL1       -0.0464
     41 N         -25.2373   47.3980   -2.5948 N.ar    1  UNL1       -0.2388
     42 H         -24.5724   46.6731   -2.9366 H       1  UNL1        0.1923
     43 C         -27.8437   45.1141   -1.7800 C.3     1  UNL1        0.1688
     44 O         -26.4888   45.0001   -1.3960 O.3     1  UNL1       -0.3463
     45 C         -25.8206   44.1266   -2.2770 C.3     1  UNL1        0.1746
@<TRIPOS>BOND
     1    21    22    1
     2    22    10    1
     3    10    11    1
     4    11    12    1
     5    12    13    1
     6    13    14    1
     7    14    15    1
     8    15    23    1
     9    23    24    1
    10    24    25   ar
    11    25    26   ar
    12    26    27   ar
    13    27    28   ar
    14    28    29   ar
    15    29    30    1
    16    15    16    1
    17    16    17    2
    18    16    18    1
    19    18    19    1
    20    19     1    1
    21     1     2    1
    22     2     3    1
    23     3     4    1
    24     4     5   ar
    25     5     6   ar
    26     6    31    1
    27    31    32   ar
    28    32    33   ar
    29    33    34   ar
    30    34    35   ar
    31    35    43    1
    32    43    44    1
    33    44    45    1
    34    35    36   ar
    35    36    37    1
    36    37    38   ar
    37    38    39   ar
    38    39    40   ar
    39    40    41   ar
    40     6     7   ar
    41     7     8   ar
    42     8     9   ar
    43    19    10    1
    44     9     1    1
    45    18    12    1
    46     9     4   ar
    47    29    24   ar
    48    36    31   ar
    49    41    37   ar
    50    41    42    1
    51    11    20    1
@<TRIPOS>MOLECULE
*****
 45 51 0 0 0
SMALL
GASTEIGER

@<TRIPOS>ATOM
      1 C         -30.5722   48.0992   -8.9728 C.3     1  UNL1        0.0817
      2 C         -31.3092   49.2367   -8.2368 C.3     1  UNL1        0.0252
      3 C         -30.4163   50.4868   -8.3703 C.3     1  UNL1        0.0278
      4 C         -29.1095   49.9431   -8.8181 C.ar    1  UNL1       -0.0248
      5 C         -27.8954   50.6290   -8.8766 C.ar    1  UNL1       -0.0045
      6 C         -26.7189   49.9120   -9.1827 C.ar    1  UNL1       -0.0002
      7 C         -26.8114   48.5377   -9.5058 C.ar    1  UNL1       -0.0003
      8 C         -28.0504   47.8831   -9.4888 C.ar    1  UNL1       -0.0033
      9 C         -29.1845   48.6055   -9.1157 C.ar    1  UNL1       -0.0117
     10 C         -31.0396   45.6108   -8.8033 C.3     1  UNL1        0.1158
     11 N         -30.9113   44.5623   -7.9534 N.3     1  UNL1       -0.2851
     12 C         -30.4145   45.1262   -6.8433 C.3     1  UNL1        0.0910
     13 C         -30.0409   44.4747   -5.6791 C.3     1  UNL1        0.1018
     14 C         -29.4818   45.2520   -4.6567 C.3     1  UNL1        0.3136
     15 N         -29.3389   46.6148   -4.7985 N.am    1  UNL1       -0.1294
     16 C         -29.7447   47.2496   -5.9553 C.2     1  UNL1        0.4047
     17 O         -29.6519   48.5006   -6.0592 O.2     1  UNL1       -0.2174
     18 C         -30.2631   46.4707   -7.0046 C.3     1  UNL1        0.2038
     19 N         -30.6464   46.8041   -8.2638 N.3     1  UNL1       -0.2473
     20 H         -30.2687   43.8644   -8.3281 H       1  UNL1        0.1244
     21 C         -30.4821   45.5797  -11.2369 C.3     1  UNL1        0.0029
     22 C         -31.5829   45.4234  -10.1934 C.3     1  UNL1        0.0326
     23 C         -28.7059   47.3793   -3.7073 C.3     1  UNL1        0.3394
     24 C         -29.4469   47.2527   -2.3826 C.ar    1  UNL1        0.0505
     25 C         -29.1518   46.2098   -1.4764 C.ar    1  UNL1        0.0021
     26 C         -29.7866   46.1415   -0.2352 C.ar    1  UNL1       -0.0001
     27 C         -30.7429   47.0913    0.1158 C.ar    1  UNL1       -0.0003
     28 C         -31.0864   48.1014   -0.7819 C.ar    1  UNL1       -0.0044
     29 C         -30.4613   48.1862   -2.0389 C.ar    1  UNL1       -0.0193
     30 C         -30.8604   49.2970   -2.9759 C.3     1  UNL1        0.0309
     31 C         -25.3860   50.5681   -9.1317 C.ar    1  UNL1        0.0028
     32 C         -24.6572   50.4779   -7.9348 C.ar    1  UNL1        0.0001
     33 C         -23.4137   51.0874   -7.8093 C.ar    1  UNL1       -0.0002
     34 C         -22.8797   51.8132   -8.8685 C.ar    1  UNL1       -0.0018
     35 C         -23.5777   51.9339  -10.0812 C.ar    1  UNL1        0.0103
     36 C         -24.8395   51.2922  -10.2316 C.ar    1  UNL1        0.0355
     37 C         -25.5856   51.4115  -11.5116 C.ar    1  UNL1        0.1803
     38 N         -25.0655   51.1660  -12.7292 N.ar    1  UNL1       -0.1084
     39 N         -26.0679   51.3522  -13.5766 N.ar    1  UNL1       -0.0229
     40 N         -27.1620   51.6929  -12.9132 N.ar    1  UNL1       -0.0464
     41 N         -26.8825   51.7365  -11.6240 N.ar    1  UNL1       -0.2388
     42 H         -27.5581   51.9666  -10.8657 H       1  UNL1        0.1923
     43 C         -22.9882   52.8049  -11.1673 C.3     1  UNL1        0.1688
     44 O         -21.8615   53.4854  -10.6539 O.3     1  UNL1       -0.3463
     45 C         -20.7101   53.0972  -11.3676 C.3     1  UNL1        0.1746
@<TRIPOS>BOND
     1    21    22    1
     2    22    10    1
     3    10    11    1
     4    11    12    1
     5    12    13    1
     6    13    14    1
     7    14    15    1
     8    15    23    1
     9    23    24    1
    10    24    25   ar
    11    25    26   ar
    12    26    27   ar
    13    27    28   ar
    14    28    29   ar
    15    29    30    1
    16    15    16    1
    17    16    17    2
    18    16    18    1
    19    18    19    1
    20    19     1    1
    21     1     2    1
    22     2     3    1
    23     3     4    1
    24     4     5   ar
    25     5     6   ar
    26     6    31    1
    27    31    32   ar
    28    32    33   ar
    29    33    34   ar
    30    34    35   ar
    31    35    43    1
    32    43    44    1
    33    44    45    1
    34    35    36   ar
    35    36    37    1
    36    37    38   ar
    37    38    39   ar
    38    39    40   ar
    39    40    41   ar
    40     6     7   ar
    41     7     8   ar
    42     8     9   ar
    43    19    10    1
    44     9     1    1
    45    18    12    1
    46     9     4   ar
    47    29    24   ar
    48    36    31   ar
    49    41    37   ar
    50    41    42    1
    51    11    20    1
