@<TRIPOS>MOLECULE
*****
 35 38 0 0 0
SMALL
GASTEIGER

@<TRIPOS>ATOM
      1 C         -28.0148   46.9934   -6.7048 C.2     1  UNL1        0.2672
      2 O         -27.1912   46.1498   -6.2580 O.2     1  UNL1       -0.2682
      3 N         -29.4135   46.8418   -6.4024 N.am    1  UNL1       -0.2685
      4 C         -29.1644   50.5395   -9.8665 C.3     1  UNL1        0.0521
      5 C         -28.0974   49.9002   -9.0264 C.ar    1  UNL1        0.0595
      6 N         -28.4253   48.7944   -8.3075 N.ar    1  UNL1       -0.2451
      7 C         -27.5462   48.1446   -7.5009 C.ar    1  UNL1        0.1343
      8 C         -26.2308   48.6134   -7.3986 C.ar    1  UNL1        0.0238
      9 C         -25.8455   49.7538   -8.1143 C.ar    1  UNL1        0.0028
     10 C         -24.5356   50.2467   -8.0064 C.ar    1  UNL1        0.0001
     11 C         -24.1546   51.3901   -8.7112 C.ar    1  UNL1        0.0000
     12 C         -25.0743   52.0500   -9.5272 C.ar    1  UNL1        0.0000
     13 C         -26.3819   51.5718   -9.6456 C.ar    1  UNL1        0.0012
     14 C         -26.7850   50.4185   -8.9418 C.ar    1  UNL1        0.0136
     15 C         -30.2440   45.8097   -7.0628 C.3     1  UNL1        0.1007
     16 C         -29.9802   44.3836   -6.5421 C.3     1  UNL1        0.0265
     17 C         -30.0430   45.8612   -8.5677 C.ar    1  UNL1        0.0234
     18 C         -29.1461   44.9752   -9.1958 C.ar    1  UNL1        0.0019
     19 C         -28.9246   45.0458  -10.5733 C.ar    1  UNL1        0.0295
     20 C         -29.5960   45.9977  -11.3424 C.ar    1  UNL1        0.1424
     21 F         -29.3776   46.0664  -12.6787 F       1  UNL1       -0.2041
     22 C         -30.4918   46.8802  -10.7345 C.ar    1  UNL1        0.0590
     23 C         -30.7173   46.8176   -9.3553 C.ar    1  UNL1        0.1399
     24 F         -31.5840   47.6979   -8.7934 F       1  UNL1       -0.2044
     25 C         -29.9197   47.5006   -5.1865 C.3     1  UNL1        0.1207
     26 C         -30.0012   48.9929   -5.3794 C.ar    1  UNL1       -0.0021
     27 C         -31.2204   49.5975   -5.7161 C.ar    1  UNL1       -0.0026
     28 C         -31.2750   50.9639   -5.9932 C.ar    1  UNL1       -0.0001
     29 C         -30.1148   51.7400   -5.9411 C.ar    1  UNL1        0.0064
     30 C         -28.8835   51.1565   -5.5933 C.ar    1  UNL1        0.0752
     31 C         -28.8401   49.7804   -5.3039 C.ar    1  UNL1        0.0038
     32 C         -27.6341   51.9546   -5.5823 C.2     1  UNL1        0.3380
     33 O         -26.7468   51.7147   -4.7206 O.2     1  UNL1       -0.2451
     34 O         -27.4100   52.9792   -6.5009 O.3     1  UNL1       -0.4771
     35 H         -28.1172   53.2884   -7.1549 H       1  UNL1        0.2954
@<TRIPOS>BOND
     1     4     5    1
     2     5     6   ar
     3     6     7   ar
     4     7     1    1
     5     1     2    2
     6     1     3   am
     7     3    25    1
     8    25    26    1
     9    26    27   ar
    10    27    28   ar
    11    28    29   ar
    12    29    30   ar
    13    30    32    1
    14    32    33    2
    15    32    34    1
    16    30    31   ar
    17     3    15    1
    18    15    16    1
    19    15    17    1
    20    17    18   ar
    21    18    19   ar
    22    19    20   ar
    23    20    21    1
    24    20    22   ar
    25    22    23   ar
    26    23    24    1
    27     7     8   ar
    28     8     9   ar
    29     9    10   ar
    30    10    11   ar
    31    11    12   ar
    32    12    13   ar
    33    13    14   ar
    34    14     5   ar
    35    31    26   ar
    36    23    17   ar
    37    14     9   ar
    38    34    35    1
@<TRIPOS>MOLECULE
*****
 35 38 0 0 0
SMALL
GASTEIGER

@<TRIPOS>ATOM
      1 C         -27.7200   47.1849   -6.8003 C.2     1  UNL1        0.2672
      2 O         -27.6032   46.0718   -6.2199 O.2     1  UNL1       -0.2682
      3 N         -26.8260   48.2580   -6.4539 N.am    1  UNL1       -0.2685
      4 C         -31.4335   49.8882   -8.4723 C.3     1  UNL1        0.0521
      5 C         -30.5408   48.7021   -8.6943 C.ar    1  UNL1        0.0595
      6 N         -29.6114   48.4137   -7.7455 N.ar    1  UNL1       -0.2451
      7 C         -28.7406   47.3762   -7.8494 C.ar    1  UNL1        0.1343
      8 C         -28.7924   46.5448   -8.9748 C.ar    1  UNL1        0.0238
      9 C         -29.7280   46.8046   -9.9839 C.ar    1  UNL1        0.0028
     10 C         -29.7786   45.9914  -11.1270 C.ar    1  UNL1        0.0001
     11 C         -30.7038   46.2571  -12.1382 C.ar    1  UNL1        0.0000
     12 C         -31.5839   47.3335  -12.0185 C.ar    1  UNL1        0.0000
     13 C         -31.5464   48.1522  -10.8868 C.ar    1  UNL1        0.0012
     14 C         -30.6192   47.8993   -9.8552 C.ar    1  UNL1        0.0136
     15 C         -26.9627   49.0038   -5.1825 C.3     1  UNL1        0.1007
     16 C         -27.0271   48.0937   -3.9407 C.3     1  UNL1        0.0265
     17 C         -28.1850   49.9042   -5.2336 C.ar    1  UNL1        0.0234
     18 C         -29.4216   49.4534   -4.7319 C.ar    1  UNL1        0.0019
     19 C         -30.5592   50.2600   -4.8146 C.ar    1  UNL1        0.0295
     20 C         -30.4783   51.5267   -5.3955 C.ar    1  UNL1        0.1424
     21 F         -31.5840   52.3068   -5.4774 F       1  UNL1       -0.2041
     22 C         -29.2582   51.9893   -5.8935 C.ar    1  UNL1        0.0590
     23 C         -28.1150   51.1868   -5.8166 C.ar    1  UNL1        0.1399
     24 F         -26.9477   51.6605   -6.3216 F       1  UNL1       -0.2044
     25 C         -25.5755   48.3739   -7.2232 C.3     1  UNL1        0.1207
     26 C         -25.6165   49.5724   -8.1357 C.ar    1  UNL1       -0.0021
     27 C         -24.5700   50.5052   -8.1263 C.ar    1  UNL1       -0.0026
     28 C         -24.6551   51.6655   -8.8966 C.ar    1  UNL1       -0.0001
     29 C         -25.7854   51.9091   -9.6805 C.ar    1  UNL1        0.0064
     30 C         -26.8411   50.9809   -9.7145 C.ar    1  UNL1        0.0752
     31 C         -26.7413   49.8081   -8.9439 C.ar    1  UNL1        0.0038
     32 C         -28.0694   51.2470  -10.5012 C.2     1  UNL1        0.3380
     33 O         -28.6773   50.2915  -11.0531 O.2     1  UNL1       -0.2451
     34 O         -28.5751   52.5368  -10.6579 O.3     1  UNL1       -0.4771
     35 H         -28.0860   53.3575  -10.3251 H       1  UNL1        0.2954
@<TRIPOS>BOND
     1     4     5    1
     2     5     6   ar
     3     6     7   ar
     4     7     1    1
     5     1     2    2
     6     1     3   am
     7     3    25    1
     8    25    26    1
     9    26    27   ar
    10    27    28   ar
    11    28    29   ar
    12    29    30   ar
    13    30    32    1
    14    32    33    2
    15    32    34    1
    16    30    31   ar
    17     3    15    1
    18    15    16    1
    19    15    17    1
    20    17    18   ar
    21    18    19   ar
    22    19    20   ar
    23    20    21    1
    24    20    22   ar
    25    22    23   ar
    26    23    24    1
    27     7     8   ar
    28     8     9   ar
    29     9    10   ar
    30    10    11   ar
    31    11    12   ar
    32    12    13   ar
    33    13    14   ar
    34    14     5   ar
    35    31    26   ar
    36    23    17   ar
    37    14     9   ar
    38    34    35    1
@<TRIPOS>MOLECULE
*****
 35 38 0 0 0
SMALL
GASTEIGER

@<TRIPOS>ATOM
      1 C         -30.3514   48.4316   -5.2440 C.2     1  UNL1        0.2672
      2 O         -31.5837   48.6299   -5.0660 O.2     1  UNL1       -0.2682
      3 N         -29.7622   47.2003   -4.7886 N.am    1  UNL1       -0.2685
      4 C         -26.6238   51.5833   -4.9877 C.3     1  UNL1        0.0521
      5 C         -27.6905   50.9630   -5.8424 C.ar    1  UNL1        0.0595
      6 N         -28.5370   50.0714   -5.2632 N.ar    1  UNL1       -0.2451
      7 C         -29.5271   49.4368   -5.9434 C.ar    1  UNL1        0.1343
      8 C         -29.7087   49.7073   -7.3051 C.ar    1  UNL1        0.0238
      9 C         -28.8575   50.6135   -7.9495 C.ar    1  UNL1        0.0028
     10 C         -29.0153   50.8800   -9.3187 C.ar    1  UNL1        0.0001
     11 C         -28.1596   51.7750   -9.9637 C.ar    1  UNL1        0.0000
     12 C         -27.1418   52.4099   -9.2507 C.ar    1  UNL1        0.0000
     13 C         -26.9719   52.1557   -7.8873 C.ar    1  UNL1        0.0012
     14 C         -27.8263   51.2553   -7.2188 C.ar    1  UNL1        0.0136
     15 C         -29.5081   46.9445   -3.3529 C.3     1  UNL1        0.1007
     16 C         -30.0771   48.0351   -2.4249 C.3     1  UNL1        0.0265
     17 C         -28.0185   46.7758   -3.1077 C.ar    1  UNL1        0.0234
     18 C         -27.1863   47.9052   -2.9820 C.ar    1  UNL1        0.0019
     19 C         -25.8092   47.7570   -2.7992 C.ar    1  UNL1        0.0295
     20 C         -25.2448   46.4818   -2.7365 C.ar    1  UNL1        0.1424
     21 F         -23.9078   46.3401   -2.5619 F       1  UNL1       -0.2041
     22 C         -26.0576   45.3523   -2.8552 C.ar    1  UNL1        0.0590
     23 C         -27.4371   45.4923   -3.0408 C.ar    1  UNL1        0.1399
     24 F         -28.1973   44.3750   -3.1656 F       1  UNL1       -0.2044
     25 C         -29.7319   46.0723   -5.7350 C.3     1  UNL1        0.1207
     26 C         -28.6976   46.2995   -6.8071 C.ar    1  UNL1       -0.0021
     27 C         -27.4662   46.8893   -6.4889 C.ar    1  UNL1       -0.0026
     28 C         -26.5498   47.1915   -7.4967 C.ar    1  UNL1       -0.0001
     29 C         -26.8532   46.9122   -8.8313 C.ar    1  UNL1        0.0064
     30 C         -28.0772   46.3094   -9.1716 C.ar    1  UNL1        0.0752
     31 C         -28.9900   45.9973   -8.1476 C.ar    1  UNL1        0.0038
     32 C         -28.4366   46.0522  -10.5868 C.2     1  UNL1        0.3380
     33 O         -29.6299   46.1958  -10.9646 O.2     1  UNL1       -0.2451
     34 O         -27.4868   45.6444  -11.5225 O.3     1  UNL1       -0.4771
     35 H         -26.5346   45.4167  -11.2678 H       1  UNL1        0.2954
@<TRIPOS>BOND
     1     4     5    1
     2     5     6   ar
     3     6     7   ar
     4     7     1    1
     5     1     2    2
     6     1     3   am
     7     3    25    1
     8    25    26    1
     9    26    27   ar
    10    27    28   ar
    11    28    29   ar
    12    29    30   ar
    13    30    32    1
    14    32    33    2
    15    32    34    1
    16    30    31   ar
    17     3    15    1
    18    15    16    1
    19    15    17    1
    20    17    18   ar
    21    18    19   ar
    22    19    20   ar
    23    20    21    1
    24    20    22   ar
    25    22    23   ar
    26    23    24    1
    27     7     8   ar
    28     8     9   ar
    29     9    10   ar
    30    10    11   ar
    31    11    12   ar
    32    12    13   ar
    33    13    14   ar
    34    14     5   ar
    35    31    26   ar
    36    23    17   ar
    37    14     9   ar
    38    34    35    1
@<TRIPOS>MOLECULE
*****
 35 38 0 0 0
SMALL
GASTEIGER

@<TRIPOS>ATOM
      1 C         -27.2949   46.4311   -5.3222 C.2     1  UNL1        0.2672
      2 O         -26.5168   45.5300   -4.9074 O.2     1  UNL1       -0.2682
      3 N         -28.4821   46.7391   -4.5694 N.am    1  UNL1       -0.2685
      4 C         -27.9957   46.9399  -10.1329 C.3     1  UNL1        0.0521
      5 C         -27.3270   47.4659   -8.8963 C.ar    1  UNL1        0.0595
      6 N         -27.5163   46.7932   -7.7307 N.ar    1  UNL1       -0.2451
      7 C         -26.9747   47.1873   -6.5488 C.ar    1  UNL1        0.1343
      8 C         -26.1707   48.3329   -6.5087 C.ar    1  UNL1        0.0238
      9 C         -25.9511   49.0649   -7.6822 C.ar    1  UNL1        0.0028
     10 C         -25.1632   50.2264   -7.6535 C.ar    1  UNL1        0.0001
     11 C         -24.9534   50.9624   -8.8212 C.ar    1  UNL1        0.0000
     12 C         -25.5263   50.5476  -10.0242 C.ar    1  UNL1        0.0000
     13 C         -26.3127   49.3935  -10.0694 C.ar    1  UNL1        0.0012
     14 C         -26.5355   48.6371   -8.9006 C.ar    1  UNL1        0.0136
     15 C         -29.6591   45.8415   -4.5727 C.3     1  UNL1        0.1007
     16 C         -29.4112   44.5012   -3.8541 C.3     1  UNL1        0.0265
     17 C         -30.1220   45.5917   -5.9978 C.ar    1  UNL1        0.0234
     18 C         -29.9021   44.3413   -6.6079 C.ar    1  UNL1        0.0019
     19 C         -30.2868   44.1189   -7.9323 C.ar    1  UNL1        0.0295
     20 C         -30.8979   45.1383   -8.6643 C.ar    1  UNL1        0.1424
     21 F         -31.2679   44.9213   -9.9504 F       1  UNL1       -0.2041
     22 C         -31.1266   46.3821   -8.0717 C.ar    1  UNL1        0.0590
     23 C         -30.7421   46.6137   -6.7467 C.ar    1  UNL1        0.1399
     24 F         -30.9667   47.8374   -6.2045 F       1  UNL1       -0.2044
     25 C         -28.3776   47.7820   -3.5349 C.3     1  UNL1        0.1207
     26 C         -29.0289   49.0607   -3.9948 C.ar    1  UNL1       -0.0021
     27 C         -30.2846   49.4346   -3.4957 C.ar    1  UNL1       -0.0026
     28 C         -30.9320   50.5650   -3.9958 C.ar    1  UNL1       -0.0001
     29 C         -30.3362   51.3311   -5.0005 C.ar    1  UNL1        0.0064
     30 C         -29.0717   50.9813   -5.5066 C.ar    1  UNL1        0.0752
     31 C         -28.4211   49.8469   -4.9879 C.ar    1  UNL1        0.0038
     32 C         -28.4474   51.7536   -6.6075 C.2     1  UNL1        0.3380
     33 O         -28.6258   51.3949   -7.8020 O.2     1  UNL1       -0.2451
     34 O         -27.6535   52.8727   -6.3601 O.3     1  UNL1       -0.4771
     35 H         -27.3901   53.1577   -5.4259 H       1  UNL1        0.2954
@<TRIPOS>BOND
     1     4     5    1
     2     5     6   ar
     3     6     7   ar
     4     7     1    1
     5     1     2    2
     6     1     3   am
     7     3    25    1
     8    25    26    1
     9    26    27   ar
    10    27    28   ar
    11    28    29   ar
    12    29    30   ar
    13    30    32    1
    14    32    33    2
    15    32    34    1
    16    30    31   ar
    17     3    15    1
    18    15    16    1
    19    15    17    1
    20    17    18   ar
    21    18    19   ar
    22    19    20   ar
    23    20    21    1
    24    20    22   ar
    25    22    23   ar
    26    23    24    1
    27     7     8   ar
    28     8     9   ar
    29     9    10   ar
    30    10    11   ar
    31    11    12   ar
    32    12    13   ar
    33    13    14   ar
    34    14     5   ar
    35    31    26   ar
    36    23    17   ar
    37    14     9   ar
    38    34    35    1
@<TRIPOS>MOLECULE
*****
 35 38 0 0 0
SMALL
GASTEIGER

@<TRIPOS>ATOM
      1 C         -28.5238   46.0525   -8.9928 C.2     1  UNL1        0.2672
      2 O         -28.4261   44.8018   -8.8680 O.2     1  UNL1       -0.2682
      3 N         -27.8227   46.9098   -8.0739 N.am    1  UNL1       -0.2685
      4 C         -31.5459   49.6130  -10.4362 C.3     1  UNL1        0.0521
      5 C         -30.7783   48.3815  -10.8201 C.ar    1  UNL1        0.0595
      6 N         -30.0650   47.7446   -9.8543 N.ar    1  UNL1       -0.2451
      7 C         -29.3209   46.6330  -10.0912 C.ar    1  UNL1        0.1343
      8 C         -29.2809   46.0945  -11.3830 C.ar    1  UNL1        0.0238
      9 C         -29.9934   46.7185  -12.4146 C.ar    1  UNL1        0.0028
     10 C         -29.9472   46.2012  -13.7188 C.ar    1  UNL1        0.0001
     11 C         -30.6485   46.8297  -14.7495 C.ar    1  UNL1        0.0000
     12 C         -31.3997   47.9766  -14.4891 C.ar    1  UNL1        0.0000
     13 C         -31.4562   48.5037  -13.1963 C.ar    1  UNL1        0.0012
     14 C         -30.7549   47.8827  -12.1426 C.ar    1  UNL1        0.0136
     15 C         -28.2853   47.0993   -6.6806 C.3     1  UNL1        0.1007
     16 C         -29.4678   46.1888   -6.2971 C.3     1  UNL1        0.0265
     17 C         -28.6495   48.5550   -6.4441 C.ar    1  UNL1        0.0234
     18 C         -29.6960   49.1534   -7.1726 C.ar    1  UNL1        0.0019
     19 C         -30.0078   50.5029   -6.9909 C.ar    1  UNL1        0.0295
     20 C         -29.2828   51.2722   -6.0791 C.ar    1  UNL1        0.1424
     21 F         -29.5852   52.5824   -5.9063 F       1  UNL1       -0.2041
     22 C         -28.2452   50.6919   -5.3463 C.ar    1  UNL1        0.0590
     23 C         -27.9251   49.3417   -5.5242 C.ar    1  UNL1        0.1399
     24 F         -26.9028   48.8114   -4.8062 F       1  UNL1       -0.2044
     25 C         -26.4573   47.3233   -8.4393 C.3     1  UNL1        0.1207
     26 C         -26.3897   48.8119   -8.6631 C.ar    1  UNL1       -0.0021
     27 C         -25.5700   49.6126   -7.8553 C.ar    1  UNL1       -0.0026
     28 C         -25.5840   51.0007   -7.9963 C.ar    1  UNL1       -0.0001
     29 C         -26.4176   51.6043   -8.9408 C.ar    1  UNL1        0.0064
     30 C         -27.2385   50.8196   -9.7700 C.ar    1  UNL1        0.0752
     31 C         -27.2089   49.4201   -9.6290 C.ar    1  UNL1        0.0038
     32 C         -28.1660   51.4457  -10.7425 C.2     1  UNL1        0.3380
     33 O         -28.5911   52.6139  -10.5379 O.2     1  UNL1       -0.2451
     34 O         -28.5940   50.7725  -11.8861 O.3     1  UNL1       -0.4771
     35 H         -28.3703   49.8017  -12.0621 H       1  UNL1        0.2954
@<TRIPOS>BOND
     1     4     5    1
     2     5     6   ar
     3     6     7   ar
     4     7     1    1
     5     1     2    2
     6     1     3   am
     7     3    25    1
     8    25    26    1
     9    26    27   ar
    10    27    28   ar
    11    28    29   ar
    12    29    30   ar
    13    30    32    1
    14    32    33    2
    15    32    34    1
    16    30    31   ar
    17     3    15    1
    18    15    16    1
    19    15    17    1
    20    17    18   ar
    21    18    19   ar
    22    19    20   ar
    23    20    21    1
    24    20    22   ar
    25    22    23   ar
    26    23    24    1
    27     7     8   ar
    28     8     9   ar
    29     9    10   ar
    30    10    11   ar
    31    11    12   ar
    32    12    13   ar
    33    13    14   ar
    34    14     5   ar
    35    31    26   ar
    36    23    17   ar
    37    14     9   ar
    38    34    35    1
@<TRIPOS>MOLECULE
*****
 35 38 0 0 0
SMALL
GASTEIGER

@<TRIPOS>ATOM
      1 C         -29.5050   46.7811   -7.2686 C.2     1  UNL1        0.2672
      2 O         -30.4006   46.0848   -7.8189 O.2     1  UNL1       -0.2682
      3 N         -29.0682   47.9969   -7.9023 N.am    1  UNL1       -0.2685
      4 C         -30.3201   44.8691   -2.8444 C.3     1  UNL1        0.0521
      5 C         -29.3114   45.4148   -3.8129 C.ar    1  UNL1        0.0595
      6 N         -29.7579   45.8734   -5.0118 N.ar    1  UNL1       -0.2451
      7 C         -28.9343   46.3723   -5.9701 C.ar    1  UNL1        0.1343
      8 C         -27.5568   46.4362   -5.7279 C.ar    1  UNL1        0.0238
      9 C         -27.0464   45.9695   -4.5102 C.ar    1  UNL1        0.0028
     10 C         -25.6655   46.0092   -4.2610 C.ar    1  UNL1        0.0001
     11 C         -25.1556   45.5336   -3.0515 C.ar    1  UNL1        0.0000
     12 C         -26.0161   45.0154   -2.0829 C.ar    1  UNL1        0.0000
     13 C         -27.3932   44.9691   -2.3155 C.ar    1  UNL1        0.0012
     14 C         -27.9266   45.4451   -3.5307 C.ar    1  UNL1        0.0136
     15 C         -28.1983   47.9801   -9.0999 C.3     1  UNL1        0.1007
     16 C         -27.7895   46.5616   -9.5419 C.3     1  UNL1        0.0265
     17 C         -26.9613   48.8285   -8.8595 C.ar    1  UNL1        0.0234
     18 C         -26.0570   48.4921   -7.8333 C.ar    1  UNL1        0.0019
     19 C         -24.9404   49.2922   -7.5791 C.ar    1  UNL1        0.0295
     20 C         -24.7094   50.4355   -8.3459 C.ar    1  UNL1        0.1424
     21 F         -23.6267   51.2122   -8.0959 F       1  UNL1       -0.2041
     22 C         -25.5948   50.7796   -9.3698 C.ar    1  UNL1        0.0590
     23 C         -26.7166   49.9850   -9.6291 C.ar    1  UNL1        0.1399
     24 F         -27.5645   50.3542  -10.6224 F       1  UNL1       -0.2044
     25 C         -29.7739   49.2392   -7.5452 C.3     1  UNL1        0.1207
     26 C         -28.8730   50.1629   -6.7667 C.ar    1  UNL1       -0.0021
     27 C         -28.5797   51.4436   -7.2557 C.ar    1  UNL1       -0.0026
     28 C         -27.6671   52.2600   -6.5867 C.ar    1  UNL1       -0.0001
     29 C         -27.0353   51.8064   -5.4263 C.ar    1  UNL1        0.0064
     30 C         -27.3241   50.5302   -4.9114 C.ar    1  UNL1        0.0752
     31 C         -28.2546   49.7187   -5.5860 C.ar    1  UNL1        0.0038
     32 C         -26.6258   50.0133   -3.7100 C.2     1  UNL1        0.3380
     33 O         -27.0197   48.9460   -3.1689 O.2     1  UNL1       -0.2451
     34 O         -25.5389   50.6824   -3.1487 O.3     1  UNL1       -0.4771
     35 H         -25.2326   51.5907   -3.4721 H       1  UNL1        0.2954
@<TRIPOS>BOND
     1     4     5    1
     2     5     6   ar
     3     6     7   ar
     4     7     1    1
     5     1     2    2
     6     1     3   am
     7     3    25    1
     8    25    26    1
     9    26    27   ar
    10    27    28   ar
    11    28    29   ar
    12    29    30   ar
    13    30    32    1
    14    32    33    2
    15    32    34    1
    16    30    31   ar
    17     3    15    1
    18    15    16    1
    19    15    17    1
    20    17    18   ar
    21    18    19   ar
    22    19    20   ar
    23    20    21    1
    24    20    22   ar
    25    22    23   ar
    26    23    24    1
    27     7     8   ar
    28     8     9   ar
    29     9    10   ar
    30    10    11   ar
    31    11    12   ar
    32    12    13   ar
    33    13    14   ar
    34    14     5   ar
    35    31    26   ar
    36    23    17   ar
    37    14     9   ar
    38    34    35    1
@<TRIPOS>MOLECULE
*****
 35 38 0 0 0
SMALL
GASTEIGER

@<TRIPOS>ATOM
      1 C         -29.7313   49.2291   -5.3907 C.2     1  UNL1        0.2672
      2 O         -30.2922   50.1597   -4.7512 O.2     1  UNL1       -0.2682
      3 N         -30.2961   47.9062   -5.3513 N.am    1  UNL1       -0.2685
      4 C         -25.5558   47.4941   -7.2478 C.3     1  UNL1        0.0521
      5 C         -26.4954   48.6595   -7.1375 C.ar    1  UNL1        0.0595
      6 N         -27.6009   48.5192   -6.3594 N.ar    1  UNL1       -0.2451
      7 C         -28.5271   49.5002   -6.2003 C.ar    1  UNL1        0.1343
      8 C         -28.3488   50.7266   -6.8518 C.ar    1  UNL1        0.0238
      9 C         -27.2290   50.9182   -7.6706 C.ar    1  UNL1        0.0028
     10 C         -27.0471   52.1356   -8.3455 C.ar    1  UNL1        0.0001
     11 C         -25.9365   52.3226   -9.1708 C.ar    1  UNL1        0.0000
     12 C         -25.0007   51.2997   -9.3298 C.ar    1  UNL1        0.0000
     13 C         -25.1673   50.0822   -8.6647 C.ar    1  UNL1        0.0012
     14 C         -26.2822   49.8750   -7.8269 C.ar    1  UNL1        0.0136
     15 C         -30.1710   47.0430   -4.1552 C.3     1  UNL1        0.1007
     16 C         -30.9237   47.5857   -2.9250 C.3     1  UNL1        0.0265
     17 C         -28.7059   46.8273   -3.8172 C.ar    1  UNL1        0.0234
     18 C         -28.0642   47.6551   -2.8754 C.ar    1  UNL1        0.0019
     19 C         -26.7064   47.4896   -2.5917 C.ar    1  UNL1        0.0295
     20 C         -25.9719   46.4955   -3.2404 C.ar    1  UNL1        0.1424
     21 F         -24.6536   46.3383   -2.9657 F       1  UNL1       -0.2041
     22 C         -26.5952   45.6641   -4.1735 C.ar    1  UNL1        0.0590
     23 C         -27.9539   45.8249   -4.4651 C.ar    1  UNL1        0.1399
     24 F         -28.5266   45.0092   -5.3862 F       1  UNL1       -0.2044
     25 C         -31.2850   47.5599   -6.3862 C.3     1  UNL1        0.1207
     26 C         -30.7670   46.4596   -7.2760 C.ar    1  UNL1       -0.0021
     27 C         -31.2933   45.1638   -7.1786 C.ar    1  UNL1       -0.0026
     28 C         -30.7453   44.1238   -7.9303 C.ar    1  UNL1       -0.0001
     29 C         -29.6655   44.3643   -8.7831 C.ar    1  UNL1        0.0064
     30 C         -29.1302   45.6588   -8.9056 C.ar    1  UNL1        0.0752
     31 C         -29.6968   46.7036   -8.1529 C.ar    1  UNL1        0.0038
     32 C         -27.9527   45.9220   -9.7673 C.2     1  UNL1        0.3380
     33 O         -27.6528   47.1074  -10.0709 O.2     1  UNL1       -0.2451
     34 O         -27.1616   44.8872  -10.2645 O.3     1  UNL1       -0.4771
     35 H         -27.4003   43.9119  -10.1411 H       1  UNL1        0.2954
@<TRIPOS>BOND
     1     4     5    1
     2     5     6   ar
     3     6     7   ar
     4     7     1    1
     5     1     2    2
     6     1     3   am
     7     3    25    1
     8    25    26    1
     9    26    27   ar
    10    27    28   ar
    11    28    29   ar
    12    29    30   ar
    13    30    32    1
    14    32    33    2
    15    32    34    1
    16    30    31   ar
    17     3    15    1
    18    15    16    1
    19    15    17    1
    20    17    18   ar
    21    18    19   ar
    22    19    20   ar
    23    20    21    1
    24    20    22   ar
    25    22    23   ar
    26    23    24    1
    27     7     8   ar
    28     8     9   ar
    29     9    10   ar
    30    10    11   ar
    31    11    12   ar
    32    12    13   ar
    33    13    14   ar
    34    14     5   ar
    35    31    26   ar
    36    23    17   ar
    37    14     9   ar
    38    34    35    1
@<TRIPOS>MOLECULE
*****
 35 38 0 0 0
SMALL
GASTEIGER

@<TRIPOS>ATOM
      1 C         -30.0784   50.2824   -7.6066 C.2     1  UNL1        0.2672
      2 O         -31.2072   50.7435   -7.9276 O.2     1  UNL1       -0.2682
      3 N         -29.9554   49.4846   -6.4153 N.am    1  UNL1       -0.2685
      4 C         -28.3935   51.2913  -12.0828 C.3     1  UNL1        0.0521
      5 C         -28.0625   51.0478  -10.6392 C.ar    1  UNL1        0.0595
      6 N         -29.0812   50.7509   -9.7900 N.ar    1  UNL1       -0.2451
      7 C         -28.9009   50.5288   -8.4619 C.ar    1  UNL1        0.1343
      8 C         -27.6103   50.5934   -7.9228 C.ar    1  UNL1        0.0238
      9 C         -26.5278   50.9028   -8.7556 C.ar    1  UNL1        0.0028
     10 C         -25.2309   50.9903   -8.2256 C.ar    1  UNL1        0.0001
     11 C         -24.1532   51.3098   -9.0537 C.ar    1  UNL1        0.0000
     12 C         -24.3592   51.5445  -10.4138 C.ar    1  UNL1        0.0000
     13 C         -25.6440   51.4610  -10.9568 C.ar    1  UNL1        0.0012
     14 C         -26.7445   51.1393  -10.1363 C.ar    1  UNL1        0.0136
     15 C         -29.9953   50.0917   -5.0658 C.3     1  UNL1        0.1007
     16 C         -30.1434   51.6253   -5.0866 C.3     1  UNL1        0.0265
     17 C         -28.7573   49.6976   -4.2786 C.ar    1  UNL1        0.0234
     18 C         -27.5205   50.3183   -4.5411 C.ar    1  UNL1        0.0019
     19 C         -26.3696   49.9305   -3.8507 C.ar    1  UNL1        0.0295
     20 C         -26.4373   48.9217   -2.8883 C.ar    1  UNL1        0.1424
     21 F         -25.3187   48.5449   -2.2214 F       1  UNL1       -0.2041
     22 C         -27.6574   48.2999   -2.6139 C.ar    1  UNL1        0.0590
     23 C         -28.8139   48.6807   -3.3026 C.ar    1  UNL1        0.1399
     24 F         -29.9811   48.0478   -3.0217 F       1  UNL1       -0.2044
     25 C         -30.1304   48.0289   -6.5530 C.3     1  UNL1        0.1207
     26 C         -29.0049   47.4269   -7.3539 C.ar    1  UNL1       -0.0021
     27 C         -27.6860   47.4949   -6.8831 C.ar    1  UNL1       -0.0026
     28 C         -26.6332   47.0276   -7.6706 C.ar    1  UNL1       -0.0001
     29 C         -26.8841   46.4917   -8.9360 C.ar    1  UNL1        0.0064
     30 C         -28.2004   46.4024   -9.4225 C.ar    1  UNL1        0.0752
     31 C         -29.2567   46.8649   -8.6167 C.ar    1  UNL1        0.0038
     32 C         -28.4802   45.8832  -10.7828 C.2     1  UNL1        0.3380
     33 O         -29.6647   45.6160  -11.1184 O.2     1  UNL1       -0.2451
     34 O         -27.4615   45.6713  -11.7110 O.3     1  UNL1       -0.4771
     35 H         -26.4824   45.7719  -11.4773 H       1  UNL1        0.2954
@<TRIPOS>BOND
     1     4     5    1
     2     5     6   ar
     3     6     7   ar
     4     7     1    1
     5     1     2    2
     6     1     3   am
     7     3    25    1
     8    25    26    1
     9    26    27   ar
    10    27    28   ar
    11    28    29   ar
    12    29    30   ar
    13    30    32    1
    14    32    33    2
    15    32    34    1
    16    30    31   ar
    17     3    15    1
    18    15    16    1
    19    15    17    1
    20    17    18   ar
    21    18    19   ar
    22    19    20   ar
    23    20    21    1
    24    20    22   ar
    25    22    23   ar
    26    23    24    1
    27     7     8   ar
    28     8     9   ar
    29     9    10   ar
    30    10    11   ar
    31    11    12   ar
    32    12    13   ar
    33    13    14   ar
    34    14     5   ar
    35    31    26   ar
    36    23    17   ar
    37    14     9   ar
    38    34    35    1
@<TRIPOS>MOLECULE
*****
 35 38 0 0 0
SMALL
GASTEIGER

@<TRIPOS>ATOM
      1 C         -28.3229   51.0883   -6.4532 C.2     1  UNL1        0.2672
      2 O         -28.8556   52.1450   -6.0182 O.2     1  UNL1       -0.2682
      3 N         -28.5028   49.8580   -5.7287 N.am    1  UNL1       -0.2685
      4 C         -28.4371   51.2020  -11.3386 C.3     1  UNL1        0.0521
      5 C         -27.5895   51.1865  -10.0999 C.ar    1  UNL1        0.0595
      6 N         -28.2160   51.1087   -8.8964 N.ar    1  UNL1       -0.2451
      7 C         -27.5514   51.1046   -7.7115 C.ar    1  UNL1        0.1343
      8 C         -26.1529   51.1726   -7.7071 C.ar    1  UNL1        0.0238
      9 C         -25.4612   51.2613   -8.9215 C.ar    1  UNL1        0.0028
     10 C         -24.0602   51.3497   -8.9318 C.ar    1  UNL1        0.0001
     11 C         -23.3712   51.4494  -10.1420 C.ar    1  UNL1        0.0000
     12 C         -24.0716   51.4621  -11.3489 C.ar    1  UNL1        0.0000
     13 C         -25.4661   51.3745  -11.3556 C.ar    1  UNL1        0.0012
     14 C         -26.1792   51.2729  -10.1435 C.ar    1  UNL1        0.0136
     15 C         -27.7896   49.5923   -4.4590 C.3     1  UNL1        0.1007
     16 C         -26.6145   50.5554   -4.2017 C.3     1  UNL1        0.0265
     17 C         -27.3026   48.1539   -4.4241 C.ar    1  UNL1        0.0234
     18 C         -27.6987   47.2943   -3.3809 C.ar    1  UNL1        0.0019
     19 C         -27.2204   45.9832   -3.3195 C.ar    1  UNL1        0.0295
     20 C         -26.3440   45.5114   -4.2982 C.ar    1  UNL1        0.1424
     21 F         -25.8787   44.2395   -4.2353 F       1  UNL1       -0.2041
     22 C         -25.9456   46.3504   -5.3412 C.ar    1  UNL1        0.0590
     23 C         -26.4182   47.6654   -5.4085 C.ar    1  UNL1        0.1399
     24 F         -26.0017   48.4591   -6.4276 F       1  UNL1       -0.2044
     25 C         -29.6575   49.0194   -6.0924 C.3     1  UNL1        0.1207
     26 C         -29.5625   48.5694   -7.5274 C.ar    1  UNL1       -0.0021
     27 C         -30.5578   48.9258   -8.4482 C.ar    1  UNL1       -0.0026
     28 C         -30.5225   48.4262   -9.7505 C.ar    1  UNL1       -0.0001
     29 C         -29.4974   47.5639  -10.1465 C.ar    1  UNL1        0.0064
     30 C         -28.4821   47.2034   -9.2429 C.ar    1  UNL1        0.0752
     31 C         -28.5192   47.7215   -7.9354 C.ar    1  UNL1        0.0038
     32 C         -27.4150   46.2500   -9.6308 C.2     1  UNL1        0.3380
     33 O         -26.3894   46.1321   -8.9087 O.2     1  UNL1       -0.2451
     34 O         -27.5076   45.4759  -10.7868 O.3     1  UNL1       -0.4771
     35 H         -28.2540   45.5900  -11.4600 H       1  UNL1        0.2954
@<TRIPOS>BOND
     1     4     5    1
     2     5     6   ar
     3     6     7   ar
     4     7     1    1
     5     1     2    2
     6     1     3   am
     7     3    25    1
     8    25    26    1
     9    26    27   ar
    10    27    28   ar
    11    28    29   ar
    12    29    30   ar
    13    30    32    1
    14    32    33    2
    15    32    34    1
    16    30    31   ar
    17     3    15    1
    18    15    16    1
    19    15    17    1
    20    17    18   ar
    21    18    19   ar
    22    19    20   ar
    23    20    21    1
    24    20    22   ar
    25    22    23   ar
    26    23    24    1
    27     7     8   ar
    28     8     9   ar
    29     9    10   ar
    30    10    11   ar
    31    11    12   ar
    32    12    13   ar
    33    13    14   ar
    34    14     5   ar
    35    31    26   ar
    36    23    17   ar
    37    14     9   ar
    38    34    35    1
