@<TRIPOS>MOLECULE
*****
 54 60 0 0 0
SMALL
GASTEIGER

@<TRIPOS>ATOM
      1 C          60.0445   85.9055   10.0750 C.ar    1  UNL1        0.0481
      2 C          61.2137   85.5597   10.7691 C.ar    1  UNL1        0.0176
      3 C          61.1492   84.7371   11.8969 C.ar    1  UNL1        0.0382
      4 C          59.9210   84.2417   12.3488 C.ar    1  UNL1        0.1388
      5 C          58.7452   84.5929   11.6579 C.ar    1  UNL1        0.0382
      6 C          58.8094   85.4147   10.5289 C.ar    1  UNL1        0.0176
      7 N          59.8285   88.6398    6.8978 N.pl3   1  UNL1       -0.3041
      8 C          60.4983   89.0464    8.1390 C.3     1  UNL1        0.1122
      9 C          61.1084   87.8270    8.8306 C.3     1  UNL1        0.1122
     10 N          60.1174   86.7469    8.9086 N.pl3   1  UNL1       -0.3041
     11 C          59.4462   86.3409    7.6677 C.3     1  UNL1        0.1122
     12 C          58.8368   87.5607    6.9756 C.3     1  UNL1        0.1122
     13 C          60.0578   91.0843    3.4186 C.ar    1  UNL1        0.0682
     14 C          58.8735   91.0184    4.1666 C.ar    1  UNL1        0.0187
     15 C          58.7973   90.2241    5.3104 C.ar    1  UNL1        0.0160
     16 C          59.9069   89.4777    5.7294 C.ar    1  UNL1        0.0478
     17 C          61.1000   89.5523    4.9962 C.ar    1  UNL1        0.0141
     18 C          61.2032   90.3761    3.8601 C.ar    1  UNL1        0.0248
     19 N          59.9309   92.4984    0.0902 N.ar    1  UNL1       -0.2024
     20 N          60.0105   93.6049    0.8161 N.ar    1  UNL1       -0.1442
     21 C          60.0871   93.2116    2.1070 C.ar    1  UNL1        0.2073
     22 N          60.0721   91.8662    2.2141 N.ar    1  UNL1       -0.2400
     23 C          59.9534   91.4529    0.9400 C.ar    1  UNL1        0.3522
     24 O          59.8464   90.2458    0.5922 O.2     1  UNL1       -0.2444
     25 C          59.8182   92.4876   -1.3727 C.3     1  UNL1        0.1099
     26 C          61.0211   93.2050   -1.9998 C.3     1  UNL1        0.0265
     27 C          57.2947   92.1476   -1.6085 C.3     1  UNL1        0.0021
     28 C          58.4713   93.1029   -1.8075 C.3     1  UNL1        0.0245
     29 C          62.5241   90.4537    3.1292 C.3     1  UNL1        0.1702
     30 O          62.9046   91.8056    2.9685 O.3     1  UNL1       -0.3463
     31 C          63.6421   91.9473    1.7752 C.3     1  UNL1        0.1746
     32 O          59.9184   83.4140   13.4835 O.3     1  UNL1       -0.4727
     33 C          58.9603   82.3930   13.7647 C.3     1  UNL1        0.2374
     34 C          58.7881   81.4648   12.5557 C.3     1  UNL1        0.1909
     35 C          58.8288   80.0124   12.9310 C.3     1  UNL1        0.1783
     36 O          59.4665   79.3623   11.8774 O.3     1  UNL1       -0.3271
     37 C          60.0490   80.3699   11.0725 C.3     1  UNL1        0.2232
     38 O          59.8374   81.6390   11.6607 O.3     1  UNL1       -0.3258
     39 C          59.4520   80.3573    9.6583 C.ar    1  UNL1        0.0404
     40 C          58.2908   79.5872    9.4272 C.ar    1  UNL1        0.0021
     41 C          57.6768   79.5651    8.1746 C.ar    1  UNL1        0.0113
     42 C          58.1935   80.3256    7.1283 C.ar    1  UNL1        0.0585
     43 CL         57.4157   80.2998    5.5561 Cl      1  UNL1       -0.0822
     44 C          59.3209   81.1198    7.3371 C.ar    1  UNL1        0.0226
     45 C          59.9507   81.1543    8.5881 C.ar    1  UNL1        0.0591
     46 CL         61.3306   82.2414    8.7384 Cl      1  UNL1       -0.0824
     47 C          61.5680   80.1357   10.9989 C.3     1  UNL1        0.1338
     48 N          62.2837   81.1139   11.8509 N.3     1  UNL1       -0.2659
     49 C          62.4847   80.6025   13.2194 C.3     1  UNL1        0.0898
     50 C          63.1444   81.6785   14.0857 C.3     1  UNL1        0.0897
     51 N          64.4342   82.0815   13.4949 N.3     1  UNL1       -0.2691
     52 C          65.0700   83.1123   14.3288 C.3     1  UNL1        0.0897
     53 C          64.2323   82.5926   12.1261 C.3     1  UNL1        0.0897
     54 C          63.5713   81.5187   11.2570 C.3     1  UNL1        0.0898
@<TRIPOS>BOND
     1    27    28    1
     2    28    25    1
     3    25    26    1
     4    25    19    1
     5    19    20   ar
     6    20    21   ar
     7    21    22   ar
     8    22    13    1
     9    13    14   ar
    10    14    15   ar
    11    15    16   ar
    12    16     7    1
    13     7     8    1
    14     8     9    1
    15     9    10    1
    16    10     1    1
    17     1     2   ar
    18     2     3   ar
    19     3     4   ar
    20     4    32    1
    21    32    33    1
    22    33    34    1
    23    34    35    1
    24    35    36    1
    25    36    37    1
    26    37    47    1
    27    47    48    1
    28    48    49    1
    29    49    50    1
    30    50    51    1
    31    51    52    1
    32    51    53    1
    33    53    54    1
    34    37    39    1
    35    39    40   ar
    36    40    41   ar
    37    41    42   ar
    38    42    43    1
    39    42    44   ar
    40    44    45   ar
    41    45    46    1
    42    37    38    1
    43     4     5   ar
    44     5     6   ar
    45    10    11    1
    46    11    12    1
    47    16    17   ar
    48    17    18   ar
    49    18    29    1
    50    29    30    1
    51    30    31    1
    52    22    23   ar
    53    23    24    2
    54    23    19   ar
    55    18    13   ar
    56    12     7    1
    57     6     1   ar
    58    38    34    1
    59    54    48    1
    60    45    39   ar
@<TRIPOS>MOLECULE
*****
 54 60 0 0 0
SMALL
GASTEIGER

@<TRIPOS>ATOM
      1 C          58.6228   85.3148    9.5642 C.ar    1  UNL1        0.0481
      2 C          57.9823   84.1001    9.2763 C.ar    1  UNL1        0.0176
      3 C          57.6776   83.2012   10.3019 C.ar    1  UNL1        0.0382
      4 C          58.0009   83.4989   11.6304 C.ar    1  UNL1        0.1388
      5 C          58.6502   84.7144   11.9211 C.ar    1  UNL1        0.0382
      6 C          58.9540   85.6144   10.8956 C.ar    1  UNL1        0.0176
      7 N          59.1835   88.3774    6.7493 N.pl3   1  UNL1       -0.3041
      8 C          59.9528   88.4132    7.9989 C.3     1  UNL1        0.1122
      9 C          60.1883   86.9923    8.5117 C.3     1  UNL1        0.1122
     10 N          58.9272   86.2412    8.5045 N.pl3   1  UNL1       -0.3041
     11 C          58.1567   86.2064    7.2555 C.3     1  UNL1        0.1122
     12 C          57.9219   87.6275    6.7421 C.3     1  UNL1        0.1122
     13 C          60.0904   91.0734    3.5803 C.ar    1  UNL1        0.0682
     14 C          58.8496   91.1303    4.2314 C.ar    1  UNL1        0.0187
     15 C          58.5521   90.2532    5.2742 C.ar    1  UNL1        0.0160
     16 C          59.4921   89.2992    5.6871 C.ar    1  UNL1        0.0478
     17 C          60.7415   89.2481    5.0522 C.ar    1  UNL1        0.0141
     18 C          61.0694   90.1490    4.0222 C.ar    1  UNL1        0.0248
     19 N          60.5306   92.7819    0.4210 N.ar    1  UNL1       -0.2024
     20 N          60.5965   93.8080    1.2578 N.ar    1  UNL1       -0.1442
     21 C          60.4650   93.2968    2.5021 C.ar    1  UNL1        0.2073
     22 N          60.3302   91.9543    2.4717 N.ar    1  UNL1       -0.2400
     23 C          60.3549   91.6677    1.1582 C.ar    1  UNL1        0.3522
     24 O          60.2024   90.5107    0.6809 O.2     1  UNL1       -0.2444
     25 C          60.6184   92.9106   -1.0380 C.3     1  UNL1        0.1099
     26 C          59.3388   92.3733   -1.6929 C.3     1  UNL1        0.0265
     27 C          63.1560   93.0303   -1.3299 C.3     1  UNL1        0.0021
     28 C          61.8889   92.2064   -1.5590 C.3     1  UNL1        0.0245
     29 C          62.4448   90.0798    3.3990 C.3     1  UNL1        0.1702
     30 O          63.0682   91.3464    3.4707 O.3     1  UNL1       -0.3463
     31 C          63.7070   91.6257    2.2451 C.3     1  UNL1        0.1746
     32 O          57.6643   82.5604   12.6197 O.3     1  UNL1       -0.4727
     33 C          58.3634   81.3430   12.8819 C.3     1  UNL1        0.2374
     34 C          59.6977   81.3116   12.1258 C.3     1  UNL1        0.1909
     35 C          60.5179   80.0975   12.4501 C.3     1  UNL1        0.1783
     36 O          61.8455   80.5178   12.4378 O.3     1  UNL1       -0.3271
     37 C          61.8226   81.9326   12.4212 C.3     1  UNL1        0.2232
     38 O          60.4874   82.3940   12.4961 O.3     1  UNL1       -0.3258
     39 C          62.4799   82.4780   11.1456 C.ar    1  UNL1        0.0404
     40 C          61.6908   83.2437   10.2591 C.ar    1  UNL1        0.0021
     41 C          62.2382   83.8010    9.1031 C.ar    1  UNL1        0.0113
     42 C          63.5894   83.6256    8.8136 C.ar    1  UNL1        0.0585
     43 CL         64.2756   84.3322    7.3621 Cl      1  UNL1       -0.0822
     44 C          64.3990   82.9005    9.6878 C.ar    1  UNL1        0.0226
     45 C          63.8666   82.3336   10.8531 C.ar    1  UNL1        0.0591
     46 CL         65.0054   81.4915   11.9031 Cl      1  UNL1       -0.0824
     47 C          62.5699   82.4597   13.6587 C.3     1  UNL1        0.1338
     48 N          62.2399   83.8848   13.8937 N.3     1  UNL1       -0.2659
     49 C          61.2523   84.0455   14.9771 C.3     1  UNL1        0.0898
     50 C          60.8746   85.5218   15.1226 C.3     1  UNL1        0.0897
     51 N          62.0788   86.3255   15.4039 N.3     1  UNL1       -0.2691
     52 C          61.7160   87.7432   15.5475 C.3     1  UNL1        0.0897
     53 C          63.0662   86.1640   14.3200 C.3     1  UNL1        0.0897
     54 C          63.4453   84.6877   14.1710 C.3     1  UNL1        0.0898
@<TRIPOS>BOND
     1    27    28    1
     2    28    25    1
     3    25    26    1
     4    25    19    1
     5    19    20   ar
     6    20    21   ar
     7    21    22   ar
     8    22    13    1
     9    13    14   ar
    10    14    15   ar
    11    15    16   ar
    12    16     7    1
    13     7     8    1
    14     8     9    1
    15     9    10    1
    16    10     1    1
    17     1     2   ar
    18     2     3   ar
    19     3     4   ar
    20     4    32    1
    21    32    33    1
    22    33    34    1
    23    34    35    1
    24    35    36    1
    25    36    37    1
    26    37    47    1
    27    47    48    1
    28    48    49    1
    29    49    50    1
    30    50    51    1
    31    51    52    1
    32    51    53    1
    33    53    54    1
    34    37    39    1
    35    39    40   ar
    36    40    41   ar
    37    41    42   ar
    38    42    43    1
    39    42    44   ar
    40    44    45   ar
    41    45    46    1
    42    37    38    1
    43     4     5   ar
    44     5     6   ar
    45    10    11    1
    46    11    12    1
    47    16    17   ar
    48    17    18   ar
    49    18    29    1
    50    29    30    1
    51    30    31    1
    52    22    23   ar
    53    23    24    2
    54    23    19   ar
    55    18    13   ar
    56    12     7    1
    57     6     1   ar
    58    38    34    1
    59    54    48    1
    60    45    39   ar
@<TRIPOS>MOLECULE
*****
 54 60 0 0 0
SMALL
GASTEIGER

@<TRIPOS>ATOM
      1 C          58.4438   83.9430   10.4386 C.ar    1  UNL1        0.0481
      2 C          58.3204   82.6061   10.0311 C.ar    1  UNL1        0.0176
      3 C          58.1228   81.5947   10.9749 C.ar    1  UNL1        0.0382
      4 C          58.0399   81.8982   12.3384 C.ar    1  UNL1        0.1388
      5 C          58.1704   83.2386   12.7506 C.ar    1  UNL1        0.0382
      6 C          58.3668   84.2506   11.8067 C.ar    1  UNL1        0.0176
      7 N          59.5335   86.7742    7.5378 N.pl3   1  UNL1       -0.3041
      8 C          59.1740   85.4184    7.1055 C.3     1  UNL1        0.1122
      9 C          58.1700   84.8045    8.0816 C.3     1  UNL1        0.1122
     10 N          58.6391   84.9823    9.4611 N.pl3   1  UNL1       -0.3041
     11 C          59.0002   86.3379    9.8935 C.3     1  UNL1        0.1122
     12 C          60.0037   86.9521    8.9167 C.3     1  UNL1        0.1122
     13 C          60.1048   89.8780    4.6790 C.ar    1  UNL1        0.0682
     14 C          61.0124   88.8125    4.7652 C.ar    1  UNL1        0.0187
     15 C          60.8245   87.7909    5.6958 C.ar    1  UNL1        0.0160
     16 C          59.7223   87.8152    6.5611 C.ar    1  UNL1        0.0478
     17 C          58.8011   88.8685    6.4687 C.ar    1  UNL1        0.0141
     18 C          58.9581   89.8881    5.5117 C.ar    1  UNL1        0.0248
     19 N          61.3105   92.2126    2.1911 N.ar    1  UNL1       -0.2024
     20 N          60.0835   92.6779    2.3794 N.ar    1  UNL1       -0.1442
     21 C          59.5162   91.8924    3.3216 C.ar    1  UNL1        0.2073
     22 N          60.3710   90.9392    3.7486 N.ar    1  UNL1       -0.2400
     23 C          61.4732   91.1543    3.0091 C.ar    1  UNL1        0.3522
     24 O          62.5102   90.4387    3.0555 O.2     1  UNL1       -0.2444
     25 C          62.2620   92.7830    1.2307 C.3     1  UNL1        0.1099
     26 C          62.3508   91.8926   -0.0160 C.3     1  UNL1        0.0265
     27 C          64.7744   92.3144    1.1464 C.3     1  UNL1        0.0021
     28 C          63.6345   92.9956    1.9034 C.3     1  UNL1        0.0245
     29 C          57.9146   90.9782    5.4249 C.3     1  UNL1        0.1702
     30 O          56.8061   90.5225    4.6756 O.3     1  UNL1       -0.3463
     31 C          56.1132   89.5398    5.4122 C.3     1  UNL1        0.1746
     32 O          57.8338   80.8414   13.2403 O.3     1  UNL1       -0.4727
     33 C          58.7972   79.8459   13.5874 C.3     1  UNL1        0.2374
     34 C          60.1353   80.1212   12.8896 C.3     1  UNL1        0.1909
     35 C          61.2261   79.1968   13.3450 C.3     1  UNL1        0.1783
     36 O          62.3937   79.9557   13.3504 O.3     1  UNL1       -0.3271
     37 C          61.9990   81.3080   13.2163 C.3     1  UNL1        0.2232
     38 O          60.5873   81.3985   13.2003 O.3     1  UNL1       -0.3258
     39 C          62.5640   81.9203   11.9270 C.ar    1  UNL1        0.0404
     40 C          61.6770   82.5966   11.0607 C.ar    1  UNL1        0.0021
     41 C          62.1343   83.2090    9.8935 C.ar    1  UNL1        0.0113
     42 C          63.4894   83.1793    9.5724 C.ar    1  UNL1        0.0585
     43 CL         64.0619   83.9550    8.1068 Cl      1  UNL1       -0.0822
     44 C          64.3922   82.5455   10.4259 C.ar    1  UNL1        0.0226
     45 C          63.9510   81.9252   11.6021 C.ar    1  UNL1        0.0591
     46 CL         65.1977   81.2104   12.6235 Cl      1  UNL1       -0.0824
     47 C          62.5048   82.1002   14.4346 C.3     1  UNL1        0.1338
     48 N          62.3337   83.5549   14.2125 N.3     1  UNL1       -0.2659
     49 C          61.2033   84.0971   14.9890 C.3     1  UNL1        0.0898
     50 C          61.0082   85.5792   14.6592 C.3     1  UNL1        0.0897
     51 N          62.2421   86.3295   14.9590 N.3     1  UNL1       -0.2691
     52 C          62.0540   87.7539   14.6459 C.3     1  UNL1        0.0897
     53 C          63.3723   85.7865   14.1821 C.3     1  UNL1        0.0897
     54 C          63.5693   84.3033   14.5089 C.3     1  UNL1        0.0898
@<TRIPOS>BOND
     1    27    28    1
     2    28    25    1
     3    25    26    1
     4    25    19    1
     5    19    20   ar
     6    20    21   ar
     7    21    22   ar
     8    22    13    1
     9    13    14   ar
    10    14    15   ar
    11    15    16   ar
    12    16     7    1
    13     7     8    1
    14     8     9    1
    15     9    10    1
    16    10     1    1
    17     1     2   ar
    18     2     3   ar
    19     3     4   ar
    20     4    32    1
    21    32    33    1
    22    33    34    1
    23    34    35    1
    24    35    36    1
    25    36    37    1
    26    37    47    1
    27    47    48    1
    28    48    49    1
    29    49    50    1
    30    50    51    1
    31    51    52    1
    32    51    53    1
    33    53    54    1
    34    37    39    1
    35    39    40   ar
    36    40    41   ar
    37    41    42   ar
    38    42    43    1
    39    42    44   ar
    40    44    45   ar
    41    45    46    1
    42    37    38    1
    43     4     5   ar
    44     5     6   ar
    45    10    11    1
    46    11    12    1
    47    16    17   ar
    48    17    18   ar
    49    18    29    1
    50    29    30    1
    51    30    31    1
    52    22    23   ar
    53    23    24    2
    54    23    19   ar
    55    18    13   ar
    56    12     7    1
    57     6     1   ar
    58    38    34    1
    59    54    48    1
    60    45    39   ar
@<TRIPOS>MOLECULE
*****
 54 60 0 0 0
SMALL
GASTEIGER

@<TRIPOS>ATOM
      1 C          60.5259   86.5888   11.3521 C.ar    1  UNL1        0.0481
      2 C          61.8082   86.1956   11.7641 C.ar    1  UNL1        0.0176
      3 C          61.9827   85.4963   12.9612 C.ar    1  UNL1        0.0382
      4 C          60.8836   85.1727   13.7646 C.ar    1  UNL1        0.1388
      5 C          59.5962   85.5722   13.3567 C.ar    1  UNL1        0.0382
      6 C          59.4212   86.2707   12.1587 C.ar    1  UNL1        0.0176
      7 N          60.4387   88.3585    7.5471 N.pl3   1  UNL1       -0.3041
      8 C          59.8093   87.0456    7.7331 C.3     1  UNL1        0.1122
      9 C          59.3004   86.9055    9.1680 C.3     1  UNL1        0.1122
     10 N          60.3508   87.3021   10.1135 N.pl3   1  UNL1       -0.3041
     11 C          60.9817   88.6145    9.9269 C.3     1  UNL1        0.1122
     12 C          61.4899   88.7549    8.4915 C.3     1  UNL1        0.1122
     13 C          59.9053   90.5130    3.9129 C.ar    1  UNL1        0.0682
     14 C          61.1532   89.9620    4.2384 C.ar    1  UNL1        0.0187
     15 C          61.3294   89.2500    5.4246 C.ar    1  UNL1        0.0160
     16 C          60.2583   89.0750    6.3112 C.ar    1  UNL1        0.0478
     17 C          59.0032   89.6083    5.9841 C.ar    1  UNL1        0.0141
     18 C          58.8010   90.2989    4.7749 C.ar    1  UNL1        0.0248
     19 N          60.2181   92.6424    1.0040 N.ar    1  UNL1       -0.2024
     20 N          59.0716   92.0349    0.7322 N.ar    1  UNL1       -0.1442
     21 C          58.8202   91.2081    1.7715 C.ar    1  UNL1        0.2073
     22 N          59.7851   91.2906    2.7116 N.ar    1  UNL1       -0.2400
     23 C          60.6515   92.1783    2.1926 C.ar    1  UNL1        0.3522
     24 O          61.7408   92.5079    2.7351 O.2     1  UNL1       -0.2444
     25 C          60.8560   93.6193    0.1142 C.3     1  UNL1        0.1099
     26 C          59.9855   93.8479   -1.1287 C.3     1  UNL1        0.0265
     27 C          62.3200   91.7617   -0.8577 C.3     1  UNL1        0.0021
     28 C          62.2857   93.1605   -0.2424 C.3     1  UNL1        0.0245
     29 C          57.4188   90.8177    4.4500 C.3     1  UNL1        0.1702
     30 O          56.5605   90.6207    5.5557 O.3     1  UNL1       -0.3463
     31 C          56.1006   89.2878    5.5617 C.3     1  UNL1        0.1746
     32 O          61.1191   84.4628   14.9534 O.3     1  UNL1       -0.4727
     33 C          62.1571   83.5030   15.1560 C.3     1  UNL1        0.2374
     34 C          61.7784   82.1557   14.5280 C.3     1  UNL1        0.1909
     35 C          62.7755   81.0758   14.8305 C.3     1  UNL1        0.1783
     36 O          62.8348   80.2789   13.6900 O.3     1  UNL1       -0.3271
     37 C          62.1703   80.9906   12.6632 C.3     1  UNL1        0.2232
     38 O          61.7615   82.2576   13.1417 O.3     1  UNL1       -0.3258
     39 C          60.9442   80.2150   12.1616 C.ar    1  UNL1        0.0404
     40 C          61.0691   78.8234   11.9551 C.ar    1  UNL1        0.0021
     41 C          59.9817   78.0550   11.5383 C.ar    1  UNL1        0.0113
     42 C          58.7392   78.6516   11.3372 C.ar    1  UNL1        0.0585
     43 CL         57.3728   77.6815   10.8185 Cl      1  UNL1       -0.0822
     44 C          58.5797   80.0185   11.5640 C.ar    1  UNL1        0.0226
     45 C          59.6604   80.8058   11.9825 C.ar    1  UNL1        0.0591
     46 CL         59.3147   82.5070   12.2902 Cl      1  UNL1       -0.0824
     47 C          63.1508   81.2236   11.5005 C.3     1  UNL1        0.1338
     48 N          62.5918   82.2049   10.5417 N.3     1  UNL1       -0.2659
     49 C          63.6535   82.9652    9.8564 C.3     1  UNL1        0.0898
     50 C          63.0295   84.0261    8.9462 C.3     1  UNL1        0.0897
     51 N          62.1405   83.3849    7.9595 N.3     1  UNL1       -0.2691
     52 C          61.5438   84.4032    7.0824 C.3     1  UNL1        0.0897
     53 C          61.0790   82.6245    8.6456 C.3     1  UNL1        0.0897
     54 C          61.7001   81.5629    9.5582 C.3     1  UNL1        0.0898
@<TRIPOS>BOND
     1    27    28    1
     2    28    25    1
     3    25    26    1
     4    25    19    1
     5    19    20   ar
     6    20    21   ar
     7    21    22   ar
     8    22    13    1
     9    13    14   ar
    10    14    15   ar
    11    15    16   ar
    12    16     7    1
    13     7     8    1
    14     8     9    1
    15     9    10    1
    16    10     1    1
    17     1     2   ar
    18     2     3   ar
    19     3     4   ar
    20     4    32    1
    21    32    33    1
    22    33    34    1
    23    34    35    1
    24    35    36    1
    25    36    37    1
    26    37    47    1
    27    47    48    1
    28    48    49    1
    29    49    50    1
    30    50    51    1
    31    51    52    1
    32    51    53    1
    33    53    54    1
    34    37    39    1
    35    39    40   ar
    36    40    41   ar
    37    41    42   ar
    38    42    43    1
    39    42    44   ar
    40    44    45   ar
    41    45    46    1
    42    37    38    1
    43     4     5   ar
    44     5     6   ar
    45    10    11    1
    46    11    12    1
    47    16    17   ar
    48    17    18   ar
    49    18    29    1
    50    29    30    1
    51    30    31    1
    52    22    23   ar
    53    23    24    2
    54    23    19   ar
    55    18    13   ar
    56    12     7    1
    57     6     1   ar
    58    38    34    1
    59    54    48    1
    60    45    39   ar
