@<TRIPOS>MOLECULE
*****
 37 39 0 0 0
SMALL
GASTEIGER

@<TRIPOS>ATOM
      1 C          46.1281   13.3755  -26.5447 C.ar    1  UNL1        0.0209
      2 C          45.8941   13.5086  -27.9224 C.ar    1  UNL1       -0.0007
      3 C          45.9251   14.7693  -28.5230 C.ar    1  UNL1       -0.0005
      4 C          46.1809   15.9070  -27.7541 C.ar    1  UNL1       -0.0029
      5 C          46.4067   15.7917  -26.3740 C.ar    1  UNL1       -0.0063
      6 C          46.3706   14.5232  -25.7726 C.ar    1  UNL1       -0.0036
      7 C          46.0822   12.0199  -25.8897 C.3     1  UNL1        0.2320
      8 O          45.6256   12.1213  -24.5403 O.3     1  UNL1       -0.4706
      9 C          48.1547   11.9054  -21.1524 C.ar    1  UNL1       -0.0043
     10 C          47.1657   12.9069  -21.2352 C.ar    1  UNL1        0.0002
     11 C          46.3297   13.0004  -22.3484 C.ar    1  UNL1        0.0366
     12 C          46.4459   12.0785  -23.4011 C.ar    1  UNL1        0.1395
     13 C          47.4090   11.0701  -23.3185 C.ar    1  UNL1        0.0424
     14 C          48.2533   10.9646  -22.2063 C.ar    1  UNL1        0.0300
     15 I          49.6109    9.3294  -22.2037 I       1  UNL1       -0.0427
     16 C          49.0257   11.8116  -19.9092 C.3     1  UNL1        0.0977
     17 C          52.3920   14.1971  -20.2923 C.3     1  UNL1        0.0900
     18 C          51.2038   13.3550  -20.1589 C.1     1  UNL1       -0.0897
     19 C          50.2242   12.6611  -20.0473 C.1     1  UNL1       -0.0870
     20 C          48.2132   12.2016  -18.6615 C.3     1  UNL1        0.1267
     21 C          48.7565   11.5535  -17.4238 C.2     1  UNL1        0.3152
     22 O          48.2834   11.8507  -16.2943 O.2     1  UNL1       -0.2502
     23 O          49.8105   10.6505  -17.5212 O.3     1  UNL1       -0.4801
     24 H          50.1993   10.2148  -16.6936 H       1  UNL1        0.2951
     25 C          46.6505   17.0269  -25.5478 C.3     1  UNL1        0.0996
     26 N          48.0961   17.3278  -25.4872 N.3     1  UNL1       -0.2579
     27 C          48.7414   16.8138  -24.2559 C.3     1  UNL1        0.1001
     28 C          49.4732   15.5054  -24.4536 C.ar    1  UNL1        0.0009
     29 C          49.6291   14.5460  -23.4389 C.ar    1  UNL1        0.0046
     30 C          50.3460   13.4265  -23.8356 C.ar    1  UNL1        0.0352
     31 S          50.7967   13.6371  -25.4397 S.2     1  UNL1       -0.0862
     32 C          50.0879   15.1452  -25.6500 C.ar    1  UNL1        0.0325
     33 C          48.4116   18.7497  -25.7672 C.3     1  UNL1        0.1772
     34 C          49.2183   18.8605  -27.0591 C.3     1  UNL1        0.4121
     35 F          50.5722   18.8307  -26.7786 F       1  UNL1       -0.1685
     36 F          48.9143   20.0423  -27.7101 F       1  UNL1       -0.1685
     37 F          48.9091   17.7984  -27.8891 F       1  UNL1       -0.1685
@<TRIPOS>BOND
     1    17    18    1
     2    18    19    3
     3    19    16    1
     4    16    20    1
     5    20    21    1
     6    21    22    2
     7    21    23    1
     8    16     9    1
     9     9    10   ar
    10    10    11   ar
    11    11    12   ar
    12    12     8    1
    13     8     7    1
    14     7     1    1
    15     1     2   ar
    16     2     3   ar
    17     3     4   ar
    18     4     5   ar
    19     5    25    1
    20    25    26    1
    21    26    27    1
    22    27    28    1
    23    28    29   ar
    24    29    30   ar
    25    30    31   ar
    26    31    32   ar
    27    26    33    1
    28    33    34    1
    29    34    35    1
    30    34    36    1
    31    34    37    1
    32     5     6   ar
    33    12    13   ar
    34    13    14   ar
    35    14    15    1
    36    14     9   ar
    37     6     1   ar
    38    32    28   ar
    39    23    24    1
@<TRIPOS>MOLECULE
*****
 37 39 0 0 0
SMALL
GASTEIGER

@<TRIPOS>ATOM
      1 C          50.3836   10.8525  -25.0082 C.ar    1  UNL1        0.0209
      2 C          51.7188   11.2609  -25.1532 C.ar    1  UNL1       -0.0007
      3 C          52.0174   12.5808  -25.4994 C.ar    1  UNL1       -0.0005
      4 C          50.9882   13.5007  -25.7120 C.ar    1  UNL1       -0.0029
      5 C          49.6482   13.1056  -25.5810 C.ar    1  UNL1       -0.0063
      6 C          49.3513   11.7768  -25.2370 C.ar    1  UNL1       -0.0036
      7 C          50.0557    9.4271  -24.6484 C.3     1  UNL1        0.2320
      8 O          50.2634    9.1928  -23.2550 O.3     1  UNL1       -0.4706
      9 C          48.3149   11.3034  -20.1454 C.ar    1  UNL1       -0.0043
     10 C          48.0606    9.9298  -20.3366 C.ar    1  UNL1        0.0002
     11 C          48.6853    9.2197  -21.3625 C.ar    1  UNL1        0.0366
     12 C          49.6005    9.8609  -22.2126 C.ar    1  UNL1        0.1395
     13 C          49.8745   11.2168  -22.0178 C.ar    1  UNL1        0.0424
     14 C          49.2553   11.9403  -20.9912 C.ar    1  UNL1        0.0300
     15 I          49.8397   13.9732  -20.7843 I       1  UNL1       -0.0427
     16 C          47.6428   12.0383  -18.9959 C.3     1  UNL1        0.0977
     17 C          43.5198   11.8970  -19.3835 C.3     1  UNL1        0.0900
     18 C          44.9749   11.9488  -19.2465 C.1     1  UNL1       -0.0897
     19 C          46.1746   11.9897  -19.1341 C.1     1  UNL1       -0.0870
     20 C          48.0909   11.4411  -17.6500 C.3     1  UNL1        0.1267
     21 C          49.3854   12.0368  -17.1851 C.2     1  UNL1        0.3152
     22 O          49.3826   13.0110  -16.3857 O.2     1  UNL1       -0.2502
     23 O          50.5905   11.5361  -17.6677 O.3     1  UNL1       -0.4801
     24 H          51.4736   11.9367  -17.3754 H       1  UNL1        0.2951
     25 C          48.5447   14.0961  -25.8428 C.3     1  UNL1        0.0996
     26 N          47.2259   13.4678  -25.6188 N.3     1  UNL1       -0.2579
     27 C          46.2670   13.7315  -26.7177 C.3     1  UNL1        0.1001
     28 C          46.3544   12.7364  -27.8530 C.ar    1  UNL1        0.0009
     29 C          46.7147   11.3901  -27.6748 C.ar    1  UNL1        0.0046
     30 C          46.7442   10.6601  -28.8541 C.ar    1  UNL1        0.0352
     31 S          46.3374   11.6909  -30.1160 S.2     1  UNL1       -0.0862
     32 C          46.1175   13.0707  -29.1839 C.ar    1  UNL1        0.0325
     33 C          46.6673   13.7406  -24.2723 C.3     1  UNL1        0.1772
     34 C          46.0226   12.4761  -23.7090 C.3     1  UNL1        0.4121
     35 F          44.6731   12.4552  -24.0104 F       1  UNL1       -0.1685
     36 F          46.1830   12.4313  -22.3359 F       1  UNL1       -0.1685
     37 F          46.6239   11.3631  -24.2676 F       1  UNL1       -0.1685
@<TRIPOS>BOND
     1    17    18    1
     2    18    19    3
     3    19    16    1
     4    16    20    1
     5    20    21    1
     6    21    22    2
     7    21    23    1
     8    16     9    1
     9     9    10   ar
    10    10    11   ar
    11    11    12   ar
    12    12     8    1
    13     8     7    1
    14     7     1    1
    15     1     2   ar
    16     2     3   ar
    17     3     4   ar
    18     4     5   ar
    19     5    25    1
    20    25    26    1
    21    26    27    1
    22    27    28    1
    23    28    29   ar
    24    29    30   ar
    25    30    31   ar
    26    31    32   ar
    27    26    33    1
    28    33    34    1
    29    34    35    1
    30    34    36    1
    31    34    37    1
    32     5     6   ar
    33    12    13   ar
    34    13    14   ar
    35    14    15    1
    36    14     9   ar
    37     6     1   ar
    38    32    28   ar
    39    23    24    1
@<TRIPOS>MOLECULE
*****
 37 39 0 0 0
SMALL
GASTEIGER

@<TRIPOS>ATOM
      1 C          51.1264   10.4071  -23.8244 C.ar    1  UNL1        0.0209
      2 C          51.0308    9.0690  -24.2376 C.ar    1  UNL1       -0.0007
      3 C          50.1964    8.1798  -23.5563 C.ar    1  UNL1       -0.0005
      4 C          49.4579    8.6152  -22.4536 C.ar    1  UNL1       -0.0029
      5 C          49.5503    9.9471  -22.0218 C.ar    1  UNL1       -0.0063
      6 C          50.3934   10.8373  -22.7064 C.ar    1  UNL1       -0.0036
      7 C          52.0351   11.3666  -24.5472 C.3     1  UNL1        0.2320
      8 O          51.4157   11.8565  -25.7372 O.3     1  UNL1       -0.4706
      9 C          48.0467   14.4157  -25.8827 C.ar    1  UNL1       -0.0043
     10 C          49.3237   14.9414  -25.5985 C.ar    1  UNL1        0.0002
     11 C          50.4442   14.1122  -25.5360 C.ar    1  UNL1        0.0366
     12 C          50.3206   12.7349  -25.7789 C.ar    1  UNL1        0.1395
     13 C          49.0628   12.2080  -26.0818 C.ar    1  UNL1        0.0424
     14 C          47.9308   13.0296  -26.1488 C.ar    1  UNL1        0.0300
     15 I          46.1084   12.0826  -26.6956 I       1  UNL1       -0.0427
     16 C          46.8529   15.3533  -25.9768 C.3     1  UNL1        0.0977
     17 C          46.7236   17.8864  -22.7003 C.3     1  UNL1        0.0900
     18 C          46.7674   16.9922  -23.8567 C.1     1  UNL1       -0.0897
     19 C          46.8052   16.2549  -24.8098 C.1     1  UNL1       -0.0870
     20 C          46.9088   16.1531  -27.2907 C.3     1  UNL1        0.1267
     21 C          45.7351   15.8496  -28.1723 C.2     1  UNL1        0.3152
     22 O          44.6337   16.4314  -27.9820 O.2     1  UNL1       -0.2502
     23 O          45.8536   14.8956  -29.1782 O.3     1  UNL1       -0.4801
     24 H          45.0662   14.6678  -29.7732 H       1  UNL1        0.2951
     25 C          48.7747   10.3995  -20.8130 C.3     1  UNL1        0.0996
     26 N          48.3311   11.7992  -20.9810 N.3     1  UNL1       -0.2579
     27 C          48.8575   12.7015  -19.9296 C.3     1  UNL1        0.1001
     28 C          50.2092   13.2946  -20.2579 C.ar    1  UNL1        0.0009
     29 C          50.4586   14.0590  -21.4102 C.ar    1  UNL1        0.0046
     30 C          51.7721   14.4922  -21.5183 C.ar    1  UNL1        0.0352
     31 S          52.6232   13.9132  -20.1913 S.2     1  UNL1       -0.0862
     32 C          51.3390   13.1105  -19.4650 C.ar    1  UNL1        0.0325
     33 C          46.8688   11.9301  -21.1905 C.3     1  UNL1        0.1772
     34 C          46.5831   12.3393  -22.6338 C.3     1  UNL1        0.4121
     35 F          45.2228   12.5040  -22.8213 F       1  UNL1       -0.1685
     36 F          47.0484   11.3704  -23.5042 F       1  UNL1       -0.1685
     37 F          47.2216   13.5346  -22.9097 F       1  UNL1       -0.1685
@<TRIPOS>BOND
     1    17    18    1
     2    18    19    3
     3    19    16    1
     4    16    20    1
     5    20    21    1
     6    21    22    2
     7    21    23    1
     8    16     9    1
     9     9    10   ar
    10    10    11   ar
    11    11    12   ar
    12    12     8    1
    13     8     7    1
    14     7     1    1
    15     1     2   ar
    16     2     3   ar
    17     3     4   ar
    18     4     5   ar
    19     5    25    1
    20    25    26    1
    21    26    27    1
    22    27    28    1
    23    28    29   ar
    24    29    30   ar
    25    30    31   ar
    26    31    32   ar
    27    26    33    1
    28    33    34    1
    29    34    35    1
    30    34    36    1
    31    34    37    1
    32     5     6   ar
    33    12    13   ar
    34    13    14   ar
    35    14    15    1
    36    14     9   ar
    37     6     1   ar
    38    32    28   ar
    39    23    24    1
@<TRIPOS>MOLECULE
*****
 37 39 0 0 0
SMALL
GASTEIGER

@<TRIPOS>ATOM
      1 C          50.5629   16.5847  -24.7758 C.ar    1  UNL1        0.0209
      2 C          51.4778   17.5228  -25.2794 C.ar    1  UNL1       -0.0007
      3 C          51.1313   18.3317  -26.3641 C.ar    1  UNL1       -0.0005
      4 C          49.8744   18.2060  -26.9601 C.ar    1  UNL1       -0.0029
      5 C          48.9524   17.2660  -26.4750 C.ar    1  UNL1       -0.0063
      6 C          49.3056   16.4514  -25.3870 C.ar    1  UNL1       -0.0036
      7 C          50.9366   15.7005  -23.6151 C.3     1  UNL1        0.2320
      8 O          49.9663   15.7931  -22.5712 O.3     1  UNL1       -0.4706
      9 C          48.0380   12.5173  -20.7080 C.ar    1  UNL1       -0.0043
     10 C          47.5452   13.0302  -21.9253 C.ar    1  UNL1        0.0002
     11 C          48.1610   14.1158  -22.5491 C.ar    1  UNL1        0.0366
     12 C          49.3026   14.7046  -21.9819 C.ar    1  UNL1        0.1395
     13 C          49.8104   14.1901  -20.7867 C.ar    1  UNL1        0.0424
     14 C          49.2024   13.1003  -20.1514 C.ar    1  UNL1        0.0300
     15 I          50.1446   12.3932  -18.3824 I       1  UNL1       -0.0427
     16 C          47.3627   11.3113  -20.0733 C.3     1  UNL1        0.0977
     17 C          43.4631   12.2100  -18.9992 C.3     1  UNL1        0.0900
     18 C          44.8394   11.8943  -19.3795 C.1     1  UNL1       -0.0897
     19 C          45.9740   11.6324  -19.6922 C.1     1  UNL1       -0.0870
     20 C          47.4078   10.1107  -21.0354 C.3     1  UNL1        0.1267
     21 C          48.6987    9.3577  -20.9188 C.2     1  UNL1        0.3152
     22 O          49.3139    8.9924  -21.9561 O.2     1  UNL1       -0.2502
     23 O          49.1974    9.0298  -19.6620 O.3     1  UNL1       -0.4801
     24 H          50.0605    8.5085  -19.5656 H       1  UNL1        0.2951
     25 C          47.6116   17.1157  -27.1437 C.3     1  UNL1        0.0996
     26 N          46.5942   16.6813  -26.1639 N.3     1  UNL1       -0.2579
     27 C          45.6347   15.7007  -26.7247 C.3     1  UNL1        0.1001
     28 C          45.7081   14.3376  -26.0742 C.ar    1  UNL1        0.0009
     29 C          44.8565   13.9311  -25.0331 C.ar    1  UNL1        0.0046
     30 C          45.1086   12.6456  -24.5765 C.ar    1  UNL1        0.0352
     31 S          46.3967   12.0229  -25.4560 S.2     1  UNL1       -0.0862
     32 C          46.6476   13.3716  -26.4250 C.ar    1  UNL1        0.0325
     33 C          45.9382   17.8099  -25.4598 C.3     1  UNL1        0.1772
     34 C          46.3334   17.8050  -23.9848 C.3     1  UNL1        0.4121
     35 F          47.4526   18.5936  -23.7894 F       1  UNL1       -0.1685
     36 F          46.6081   16.5144  -23.5700 F       1  UNL1       -0.1685
     37 F          45.2925   18.3082  -23.2262 F       1  UNL1       -0.1685
@<TRIPOS>BOND
     1    17    18    1
     2    18    19    3
     3    19    16    1
     4    16    20    1
     5    20    21    1
     6    21    22    2
     7    21    23    1
     8    16     9    1
     9     9    10   ar
    10    10    11   ar
    11    11    12   ar
    12    12     8    1
    13     8     7    1
    14     7     1    1
    15     1     2   ar
    16     2     3   ar
    17     3     4   ar
    18     4     5   ar
    19     5    25    1
    20    25    26    1
    21    26    27    1
    22    27    28    1
    23    28    29   ar
    24    29    30   ar
    25    30    31   ar
    26    31    32   ar
    27    26    33    1
    28    33    34    1
    29    34    35    1
    30    34    36    1
    31    34    37    1
    32     5     6   ar
    33    12    13   ar
    34    13    14   ar
    35    14    15    1
    36    14     9   ar
    37     6     1   ar
    38    32    28   ar
    39    23    24    1
@<TRIPOS>MOLECULE
*****
 37 39 0 0 0
SMALL
GASTEIGER

@<TRIPOS>ATOM
      1 C          48.6855   16.1386  -25.5187 C.ar    1  UNL1        0.0209
      2 C          47.9519   17.2846  -25.8639 C.ar    1  UNL1       -0.0007
      3 C          46.8841   17.1934  -26.7596 C.ar    1  UNL1       -0.0005
      4 C          46.5448   15.9618  -27.3243 C.ar    1  UNL1       -0.0029
      5 C          47.2747   14.8088  -26.9974 C.ar    1  UNL1       -0.0063
      6 C          48.3504   14.9048  -26.0998 C.ar    1  UNL1       -0.0036
      7 C          49.8466   16.2338  -24.5639 C.3     1  UNL1        0.2320
      8 O          49.3929   16.2443  -23.2097 O.3     1  UNL1       -0.4706
      9 C          48.0905   12.8701  -21.0099 C.ar    1  UNL1       -0.0043
     10 C          47.2691   13.4203  -22.0151 C.ar    1  UNL1        0.0002
     11 C          47.6766   14.5385  -22.7436 C.ar    1  UNL1        0.0366
     12 C          48.9296   15.1239  -22.5009 C.ar    1  UNL1        0.1395
     13 C          49.7591   14.5731  -21.5212 C.ar    1  UNL1        0.0424
     14 C          49.3624   13.4505  -20.7841 C.ar    1  UNL1        0.0300
     15 I          50.7725   12.6928  -19.3861 I       1  UNL1       -0.0427
     16 C          47.6296   11.6304  -20.2591 C.3     1  UNL1        0.0977
     17 C          43.7562   12.1140  -18.8691 C.3     1  UNL1        0.0900
     18 C          45.1239   11.9447  -19.3585 C.1     1  UNL1       -0.0897
     19 C          46.2508   11.8041  -19.7633 C.1     1  UNL1       -0.0870
     20 C          47.7388   10.3905  -21.1645 C.3     1  UNL1        0.1267
     21 C          48.8940    9.5198  -20.7715 C.2     1  UNL1        0.3152
     22 O          49.6439    9.0265  -21.6560 O.2     1  UNL1       -0.2502
     23 O          49.1144    9.2264  -19.4295 O.3     1  UNL1       -0.4801
     24 H          49.8813    8.6277  -19.1479 H       1  UNL1        0.2951
     25 C          46.9216   13.4912  -27.6352 C.3     1  UNL1        0.0996
     26 N          46.8788   12.4218  -26.6162 N.3     1  UNL1       -0.2579
     27 C          47.8513   11.3348  -26.8792 C.3     1  UNL1        0.1001
     28 C          49.0188   11.3175  -25.9184 C.ar    1  UNL1        0.0009
     29 C          48.9219   11.7241  -24.5769 C.ar    1  UNL1        0.0046
     30 C          50.1189   11.6388  -23.8807 C.ar    1  UNL1        0.0352
     31 S          51.2968   11.0730  -24.9356 S.2     1  UNL1       -0.0862
     32 C          50.3049   10.9278  -26.2833 C.ar    1  UNL1        0.0325
     33 C          45.5073   11.9300  -26.3391 C.3     1  UNL1        0.1772
     34 C          45.0318   12.4465  -24.9830 C.3     1  UNL1        0.4121
     35 F          45.3096   13.7960  -24.8638 F       1  UNL1       -0.1685
     36 F          45.6655   11.7597  -23.9634 F       1  UNL1       -0.1685
     37 F          43.6665   12.2582  -24.8701 F       1  UNL1       -0.1685
@<TRIPOS>BOND
     1    17    18    1
     2    18    19    3
     3    19    16    1
     4    16    20    1
     5    20    21    1
     6    21    22    2
     7    21    23    1
     8    16     9    1
     9     9    10   ar
    10    10    11   ar
    11    11    12   ar
    12    12     8    1
    13     8     7    1
    14     7     1    1
    15     1     2   ar
    16     2     3   ar
    17     3     4   ar
    18     4     5   ar
    19     5    25    1
    20    25    26    1
    21    26    27    1
    22    27    28    1
    23    28    29   ar
    24    29    30   ar
    25    30    31   ar
    26    31    32   ar
    27    26    33    1
    28    33    34    1
    29    34    35    1
    30    34    36    1
    31    34    37    1
    32     5     6   ar
    33    12    13   ar
    34    13    14   ar
    35    14    15    1
    36    14     9   ar
    37     6     1   ar
    38    32    28   ar
    39    23    24    1
@<TRIPOS>MOLECULE
*****
 37 39 0 0 0
SMALL
GASTEIGER

@<TRIPOS>ATOM
      1 C          49.1929   10.3227  -22.5686 C.ar    1  UNL1        0.0209
      2 C          49.0189    8.9304  -22.6127 C.ar    1  UNL1       -0.0007
      3 C          49.9303    8.1287  -23.3037 C.ar    1  UNL1       -0.0005
      4 C          51.0167    8.7088  -23.9626 C.ar    1  UNL1       -0.0029
      5 C          51.1990   10.0999  -23.9365 C.ar    1  UNL1       -0.0063
      6 C          50.2783   10.9034  -23.2445 C.ar    1  UNL1       -0.0036
      7 C          48.2054   11.1930  -21.8364 C.3     1  UNL1        0.2320
      8 O          47.0460   11.4315  -22.6356 O.3     1  UNL1       -0.4706
      9 C          46.6400   14.6494  -25.3561 C.ar    1  UNL1       -0.0043
     10 C          46.4608   13.3222  -25.7971 C.ar    1  UNL1        0.0002
     11 C          46.6008   12.2480  -24.9177 C.ar    1  UNL1        0.0366
     12 C          46.9022   12.4745  -23.5651 C.ar    1  UNL1        0.1395
     13 C          47.0610   13.7871  -23.1144 C.ar    1  UNL1        0.0424
     14 C          46.9220   14.8738  -23.9866 C.ar    1  UNL1        0.0300
     15 I          47.1201   16.8066  -23.1251 I       1  UNL1       -0.0427
     16 C          46.4461   15.7979  -26.3340 C.3     1  UNL1        0.0977
     17 C          49.9374   17.9955  -26.7217 C.3     1  UNL1        0.0900
     18 C          48.7046   17.2211  -26.5835 C.1     1  UNL1       -0.0897
     19 C          47.6890   16.5814  -26.4706 C.1     1  UNL1       -0.0870
     20 C          45.9797   15.2599  -27.6986 C.3     1  UNL1        0.1267
     21 C          45.3303   16.3311  -28.5219 C.2     1  UNL1        0.3152
     22 O          44.2120   16.8009  -28.1804 O.2     1  UNL1       -0.2502
     23 O          45.9475   16.7794  -29.6854 O.3     1  UNL1       -0.4801
     24 H          45.5153   17.4919  -30.2611 H       1  UNL1        0.2951
     25 C          52.3553   10.7192  -24.6760 C.3     1  UNL1        0.0996
     26 N          51.8678   11.4944  -25.8360 N.3     1  UNL1       -0.2579
     27 C          52.4827   11.0672  -27.1151 C.3     1  UNL1        0.1001
     28 C          51.6973    9.9976  -27.8401 C.ar    1  UNL1        0.0009
     29 C          50.3653    9.6737  -27.5316 C.ar    1  UNL1        0.0046
     30 C          49.8445    8.6527  -28.3132 C.ar    1  UNL1        0.0352
     31 S          51.0429    8.1452  -29.3746 S.2     1  UNL1       -0.0862
     32 C          52.2323    9.2129  -28.8584 C.ar    1  UNL1        0.0325
     33 C          51.9134   12.9613  -25.6222 C.3     1  UNL1        0.1772
     34 C          50.4953   13.5257  -25.5732 C.3     1  UNL1        0.4121
     35 F          50.1896   13.9336  -24.2876 F       1  UNL1       -0.1685
     36 F          49.5861   12.5635  -25.9737 F       1  UNL1       -0.1685
     37 F          50.4016   14.6130  -26.4226 F       1  UNL1       -0.1685
@<TRIPOS>BOND
     1    17    18    1
     2    18    19    3
     3    19    16    1
     4    16    20    1
     5    20    21    1
     6    21    22    2
     7    21    23    1
     8    16     9    1
     9     9    10   ar
    10    10    11   ar
    11    11    12   ar
    12    12     8    1
    13     8     7    1
    14     7     1    1
    15     1     2   ar
    16     2     3   ar
    17     3     4   ar
    18     4     5   ar
    19     5    25    1
    20    25    26    1
    21    26    27    1
    22    27    28    1
    23    28    29   ar
    24    29    30   ar
    25    30    31   ar
    26    31    32   ar
    27    26    33    1
    28    33    34    1
    29    34    35    1
    30    34    36    1
    31    34    37    1
    32     5     6   ar
    33    12    13   ar
    34    13    14   ar
    35    14    15    1
    36    14     9   ar
    37     6     1   ar
    38    32    28   ar
    39    23    24    1
@<TRIPOS>MOLECULE
*****
 37 39 0 0 0
SMALL
GASTEIGER

@<TRIPOS>ATOM
      1 C          47.2308   11.7203  -27.1971 C.ar    1  UNL1        0.0209
      2 C          46.7683   11.0429  -28.3363 C.ar    1  UNL1       -0.0007
      3 C          47.5145    9.9972  -28.8847 C.ar    1  UNL1       -0.0005
      4 C          48.7305    9.6246  -28.3074 C.ar    1  UNL1       -0.0029
      5 C          49.2115   10.2985  -27.1746 C.ar    1  UNL1       -0.0063
      6 C          48.4609   11.3522  -26.6283 C.ar    1  UNL1       -0.0036
      7 C          46.4368   12.8576  -26.6098 C.3     1  UNL1        0.2320
      8 O          47.1540   13.4830  -25.5448 O.3     1  UNL1       -0.4706
      9 C          46.9930   12.4657  -21.4387 C.ar    1  UNL1       -0.0043
     10 C          46.0917   11.8780  -22.3498 C.ar    1  UNL1        0.0002
     11 C          46.1226   12.2085  -23.7051 C.ar    1  UNL1        0.0366
     12 C          47.0730   13.1211  -24.1902 C.ar    1  UNL1        0.1395
     13 C          47.9836   13.6929  -23.2984 C.ar    1  UNL1        0.0424
     14 C          47.9639   13.3686  -21.9363 C.ar    1  UNL1        0.0300
     15 I          49.4649   14.2683  -20.7302 I       1  UNL1       -0.0427
     16 C          46.9537   12.0567  -19.9744 C.3     1  UNL1        0.0977
     17 C          43.0508   11.9386  -18.5877 C.3     1  UNL1        0.0900
     18 C          44.4277   11.9808  -19.0788 C.1     1  UNL1       -0.0897
     19 C          45.5633   12.0148  -19.4823 C.1     1  UNL1       -0.0870
     20 C          47.6478   10.6961  -19.7848 C.3     1  UNL1        0.1267
     21 C          48.8193   10.7985  -18.8552 C.2     1  UNL1        0.3152
     22 O          48.9526   11.8092  -18.1144 O.2     1  UNL1       -0.2502
     23 O          49.7800    9.7923  -18.8391 O.3     1  UNL1       -0.4801
     24 H          50.5854    9.8530  -18.2278 H       1  UNL1        0.2951
     25 C          50.5385    9.9106  -26.5778 C.3     1  UNL1        0.0996
     26 N          50.7083   10.5375  -25.2503 N.3     1  UNL1       -0.2579
     27 C          51.8132   11.5247  -25.2154 C.3     1  UNL1        0.1001
     28 C          51.3501   12.9488  -25.0061 C.ar    1  UNL1        0.0009
     29 C          50.6736   13.6937  -25.9868 C.ar    1  UNL1        0.0046
     30 C          50.3542   14.9829  -25.5860 C.ar    1  UNL1        0.0352
     31 S          50.9251   15.1993  -24.0214 S.2     1  UNL1       -0.0862
     32 C          51.5801   13.6641  -23.8337 C.ar    1  UNL1        0.0325
     33 C          50.7613    9.5555  -24.1402 C.3     1  UNL1        0.1772
     34 C          49.7607    9.9422  -23.0533 C.3     1  UNL1        0.4121
     35 F          50.2244   11.0375  -22.3476 F       1  UNL1       -0.1685
     36 F          49.5732    8.8851  -22.1813 F       1  UNL1       -0.1685
     37 F          48.5484   10.2645  -23.6353 F       1  UNL1       -0.1685
@<TRIPOS>BOND
     1    17    18    1
     2    18    19    3
     3    19    16    1
     4    16    20    1
     5    20    21    1
     6    21    22    2
     7    21    23    1
     8    16     9    1
     9     9    10   ar
    10    10    11   ar
    11    11    12   ar
    12    12     8    1
    13     8     7    1
    14     7     1    1
    15     1     2   ar
    16     2     3   ar
    17     3     4   ar
    18     4     5   ar
    19     5    25    1
    20    25    26    1
    21    26    27    1
    22    27    28    1
    23    28    29   ar
    24    29    30   ar
    25    30    31   ar
    26    31    32   ar
    27    26    33    1
    28    33    34    1
    29    34    35    1
    30    34    36    1
    31    34    37    1
    32     5     6   ar
    33    12    13   ar
    34    13    14   ar
    35    14    15    1
    36    14     9   ar
    37     6     1   ar
    38    32    28   ar
    39    23    24    1
@<TRIPOS>MOLECULE
*****
 37 39 0 0 0
SMALL
GASTEIGER

@<TRIPOS>ATOM
      1 C          51.8386   13.3957  -22.1891 C.ar    1  UNL1        0.0209
      2 C          52.9745   13.7236  -21.4323 C.ar    1  UNL1       -0.0007
      3 C          52.8587   13.9803  -20.0642 C.ar    1  UNL1       -0.0005
      4 C          51.6097   13.9204  -19.4420 C.ar    1  UNL1       -0.0029
      5 C          50.4632   13.6039  -20.1866 C.ar    1  UNL1       -0.0063
      6 C          50.5825   13.3507  -21.5627 C.ar    1  UNL1       -0.0036
      7 C          51.9558   13.1314  -23.6673 C.3     1  UNL1        0.2320
      8 O          51.0813   13.9837  -24.4081 O.3     1  UNL1       -0.4706
      9 C          47.4463   12.8796  -26.2759 C.ar    1  UNL1       -0.0043
     10 C          48.2936   11.8908  -25.7353 C.ar    1  UNL1        0.0002
     11 C          49.5006   12.2344  -25.1252 C.ar    1  UNL1        0.0366
     12 C          49.8824   13.5814  -25.0191 C.ar    1  UNL1        0.1395
     13 C          49.0395   14.5696  -25.5333 C.ar    1  UNL1        0.0424
     14 C          47.8252   14.2380  -26.1468 C.ar    1  UNL1        0.0300
     15 I          46.6264   15.8641  -26.8071 I       1  UNL1       -0.0427
     16 C          46.1221   12.4722  -26.9032 C.3     1  UNL1        0.0977
     17 C          46.7539   10.2513  -30.3438 C.3     1  UNL1        0.0900
     18 C          46.5316   11.0337  -29.1284 C.1     1  UNL1       -0.0897
     19 C          46.3474   11.6799  -28.1274 C.1     1  UNL1       -0.0870
     20 C          45.2724   11.6885  -25.8869 C.3     1  UNL1        0.1267
     21 C          44.8940   12.5385  -24.7115 C.2     1  UNL1        0.3152
     22 O          44.2352   13.5988  -24.8835 O.2     1  UNL1       -0.2502
     23 O          45.3044   12.1738  -23.4331 O.3     1  UNL1       -0.4801
     24 H          45.0701   12.7446  -22.6299 H       1  UNL1        0.2951
     25 C          49.1164   13.5726  -19.5136 C.3     1  UNL1        0.0996
     26 N          49.0428   12.4434  -18.5631 N.3     1  UNL1       -0.2579
     27 C          48.0783   11.3988  -18.9817 C.3     1  UNL1        0.1001
     28 C          48.4603   10.6976  -20.2658 C.ar    1  UNL1        0.0009
     29 C          47.6850   10.7518  -21.4363 C.ar    1  UNL1        0.0046
     30 C          48.2166   10.0245  -22.4913 C.ar    1  UNL1        0.0352
     31 S          49.6393    9.3045  -21.9640 S.2     1  UNL1       -0.0862
     32 C          49.5991    9.9070  -20.3966 C.ar    1  UNL1        0.0325
     33 C          48.8703   12.8729  -17.1541 C.3     1  UNL1        0.1772
     34 C          49.9507   12.2401  -16.2798 C.3     1  UNL1        0.4121
     35 F          49.8841   12.7511  -14.9964 F       1  UNL1       -0.1685
     36 F          51.2024   12.4988  -16.8082 F       1  UNL1       -0.1685
     37 F          49.7595   10.8715  -16.2278 F       1  UNL1       -0.1685
@<TRIPOS>BOND
     1    17    18    1
     2    18    19    3
     3    19    16    1
     4    16    20    1
     5    20    21    1
     6    21    22    2
     7    21    23    1
     8    16     9    1
     9     9    10   ar
    10    10    11   ar
    11    11    12   ar
    12    12     8    1
    13     8     7    1
    14     7     1    1
    15     1     2   ar
    16     2     3   ar
    17     3     4   ar
    18     4     5   ar
    19     5    25    1
    20    25    26    1
    21    26    27    1
    22    27    28    1
    23    28    29   ar
    24    29    30   ar
    25    30    31   ar
    26    31    32   ar
    27    26    33    1
    28    33    34    1
    29    34    35    1
    30    34    36    1
    31    34    37    1
    32     5     6   ar
    33    12    13   ar
    34    13    14   ar
    35    14    15    1
    36    14     9   ar
    37     6     1   ar
    38    32    28   ar
    39    23    24    1
@<TRIPOS>MOLECULE
*****
 37 39 0 0 0
SMALL
GASTEIGER

@<TRIPOS>ATOM
      1 C          45.3012   12.8768  -25.6573 C.ar    1  UNL1        0.0209
      2 C          45.8051   11.9703  -26.6033 C.ar    1  UNL1       -0.0007
      3 C          46.3830   12.4362  -27.7865 C.ar    1  UNL1       -0.0005
      4 C          46.4554   13.8079  -28.0395 C.ar    1  UNL1       -0.0029
      5 C          45.9471   14.7266  -27.1087 C.ar    1  UNL1       -0.0063
      6 C          45.3629   14.2546  -25.9221 C.ar    1  UNL1       -0.0036
      7 C          44.6647   12.3792  -24.3861 C.3     1  UNL1        0.2320
      8 O          45.4948   12.6581  -23.2578 O.3     1  UNL1       -0.4706
      9 C          49.7268   12.5588  -23.2842 C.ar    1  UNL1       -0.0043
     10 C          49.0473   13.7941  -23.2961 C.ar    1  UNL1        0.0002
     11 C          47.6529   13.8469  -23.2982 C.ar    1  UNL1        0.0366
     12 C          46.8992   12.6627  -23.2655 C.ar    1  UNL1        0.1395
     13 C          47.5637   11.4344  -23.2326 C.ar    1  UNL1        0.0424
     14 C          48.9624   11.3680  -23.2290 C.ar    1  UNL1        0.0300
     15 I          49.8146    9.4252  -23.1003 I       1  UNL1       -0.0427
     16 C          51.2471   12.5388  -23.2478 C.3     1  UNL1        0.0977
     17 C          52.7919   11.6660  -26.9922 C.3     1  UNL1        0.0900
     18 C          52.2459   11.9723  -25.6705 C.1     1  UNL1       -0.0897
     19 C          51.7962   12.2265  -24.5812 C.1     1  UNL1       -0.0870
     20 C          51.7832   13.8860  -22.7314 C.3     1  UNL1        0.1267
     21 C          52.8188   13.6959  -21.6645 C.2     1  UNL1        0.3152
     22 O          53.8858   13.0767  -21.9216 O.2     1  UNL1       -0.2502
     23 O          52.5831   14.1719  -20.3786 O.3     1  UNL1       -0.4801
     24 H          53.2658   14.0389  -19.6423 H       1  UNL1        0.2951
     25 C          46.0012   16.2021  -27.4042 C.3     1  UNL1        0.0996
     26 N          47.1364   16.8275  -26.6942 N.3     1  UNL1       -0.2579
     27 C          48.4518   16.3128  -27.1429 C.3     1  UNL1        0.1001
     28 C          49.6223   16.8810  -26.3724 C.ar    1  UNL1        0.0009
     29 C          50.2429   18.0993  -26.6965 C.ar    1  UNL1        0.0046
     30 C          51.3057   18.4220  -25.8653 C.ar    1  UNL1        0.0352
     31 S          51.4812   17.1878  -24.7399 S.2     1  UNL1       -0.0862
     32 C          50.2136   16.2335  -25.2907 C.ar    1  UNL1        0.0325
     33 C          46.9771   16.8290  -25.2197 C.3     1  UNL1        0.1772
     34 C          46.6121   18.2306  -24.7357 C.3     1  UNL1        0.4121
     35 F          47.7159   19.0608  -24.8061 F       1  UNL1       -0.1685
     36 F          46.1628   18.1807  -23.4286 F       1  UNL1       -0.1685
     37 F          45.6099   18.7488  -25.5354 F       1  UNL1       -0.1685
@<TRIPOS>BOND
     1    17    18    1
     2    18    19    3
     3    19    16    1
     4    16    20    1
     5    20    21    1
     6    21    22    2
     7    21    23    1
     8    16     9    1
     9     9    10   ar
    10    10    11   ar
    11    11    12   ar
    12    12     8    1
    13     8     7    1
    14     7     1    1
    15     1     2   ar
    16     2     3   ar
    17     3     4   ar
    18     4     5   ar
    19     5    25    1
    20    25    26    1
    21    26    27    1
    22    27    28    1
    23    28    29   ar
    24    29    30   ar
    25    30    31   ar
    26    31    32   ar
    27    26    33    1
    28    33    34    1
    29    34    35    1
    30    34    36    1
    31    34    37    1
    32     5     6   ar
    33    12    13   ar
    34    13    14   ar
    35    14    15    1
    36    14     9   ar
    37     6     1   ar
    38    32    28   ar
    39    23    24    1
