@<TRIPOS>MOLECULE
*****
 46 51 0 0 0
SMALL
GASTEIGER

@<TRIPOS>ATOM
      1 C          11.8235   80.5541   25.1999 C.ar    1  UNL1        0.0702
      2 C          13.2177   80.5141   25.0420 C.ar    1  UNL1        0.0191
      3 C          13.9170   81.6707   24.6933 C.ar    1  UNL1        0.0356
      4 C          13.2147   82.8668   24.4776 C.ar    1  UNL1        0.1318
      5 N          11.8613   82.8795   24.6312 N.ar    1  UNL1       -0.2279
      6 C          11.1600   81.7659   24.9706 C.ar    1  UNL1        0.1149
      7 N          13.9036   84.0852   24.1385 N.pl3   1  UNL1       -0.2932
      8 C          13.6807   85.3287   24.8895 C.3     1  UNL1        0.0923
      9 C          13.4056   86.5026   23.9342 C.3     1  UNL1        0.0252
     10 C          14.1479   86.3807   22.5762 C.3     1  UNL1        0.0472
     11 C          15.3810   85.4625   22.6867 C.3     1  UNL1        0.0252
     12 C          14.9496   84.0487   23.1055 C.3     1  UNL1        0.0923
     13 C          14.5364   87.7717   22.0388 C.3     1  UNL1        0.2055
     14 O          14.4302   87.8254   20.6150 O.3     1  UNL1       -0.4724
     15 C          14.1871   86.7316   19.7657 C.ar    1  UNL1        0.1721
     16 C          15.2304   85.9835   19.1816 C.ar    1  UNL1        0.0465
     17 C          14.9491   84.8965   18.3341 C.ar    1  UNL1        0.0787
     18 C          13.6110   84.5580   18.0796 C.ar    1  UNL1        0.0097
     19 C          12.5745   85.2901   18.6599 C.ar    1  UNL1        0.0400
     20 C          12.8538   86.3717   19.4991 C.ar    1  UNL1        0.1677
     21 O          11.7907   87.0812   20.0577 O.3     1  UNL1       -0.5029
     22 H          11.9333   87.8760   20.6693 H       1  UNL1        0.2923
     23 C          16.0449   84.1160   17.7166 C.2     1  UNL1        0.3381
     24 O          16.6521   83.2315   18.3792 O.2     1  UNL1       -0.2451
     25 O          16.4167   84.3521   16.3954 O.3     1  UNL1       -0.4771
     26 H          17.1654   83.8239   15.9633 H       1  UNL1        0.2954
     27 C          10.0129   78.8410   24.7172 C.2     1  UNL1        0.2839
     28 O           9.8723   79.2303   23.5266 O.2     1  UNL1       -0.2665
     29 N          11.0646   79.3795   25.5349 N.am    1  UNL1       -0.2766
     30 H          11.3527   78.8389   26.3818 H       1  UNL1        0.1553
     31 C           8.3282   78.9802   27.4403 C.3     1  UNL1        0.0345
     32 C           8.3854   77.8556   26.4507 C.ar    1  UNL1        0.0202
     33 C           9.1219   77.7992   25.2621 C.ar    1  UNL1        0.1946
     34 O           8.9166   76.6424   24.6576 O.2     1  UNL1       -0.4492
     35 C           8.0844   75.9460   25.3924 C.ar    1  UNL1        0.1452
     36 C           7.5959   74.6698   25.1347 C.ar    1  UNL1        0.0375
     37 C           6.7072   74.1031   26.0645 C.ar    1  UNL1        0.0031
     38 C           6.3216   74.8158   27.2320 C.ar    1  UNL1        0.0002
     39 C           6.8419   76.1132   27.4563 C.ar    1  UNL1        0.0028
     40 C           7.7215   76.6451   26.5122 C.ar    1  UNL1        0.0337
     41 C           5.3822   74.2066   28.2073 C.ar    1  UNL1        0.0000
     42 C           4.9659   72.8696   28.0611 C.ar    1  UNL1        0.0000
     43 C           4.0820   72.2982   28.9818 C.ar    1  UNL1        0.0000
     44 C           3.6037   73.0525   30.0554 C.ar    1  UNL1        0.0000
     45 C           4.0087   74.3799   30.2113 C.ar    1  UNL1        0.0000
     46 C           4.8932   74.9561   29.2944 C.ar    1  UNL1        0.0000
@<TRIPOS>BOND
     1    31    32    1
     2    32    33   ar
     3    33    27    1
     4    27    28    2
     5    27    29   am
     6    29     1    1
     7     1     2   ar
     8     2     3   ar
     9     3     4   ar
    10     4     7    1
    11     7     8    1
    12     8     9    1
    13     9    10    1
    14    10    13    1
    15    13    14    1
    16    14    15    1
    17    15    16   ar
    18    16    17   ar
    19    17    23    1
    20    23    24    2
    21    23    25    1
    22    17    18   ar
    23    18    19   ar
    24    19    20   ar
    25    20    21    1
    26    10    11    1
    27    11    12    1
    28     4     5   ar
    29     5     6   ar
    30    33    34   ar
    31    34    35   ar
    32    35    36   ar
    33    36    37   ar
    34    37    38   ar
    35    38    41    1
    36    41    42   ar
    37    42    43   ar
    38    43    44   ar
    39    44    45   ar
    40    45    46   ar
    41    38    39   ar
    42    39    40   ar
    43    40    32   ar
    44     6     1   ar
    45    40    35   ar
    46    12     7    1
    47    46    41   ar
    48    20    15   ar
    49    29    30    1
    50    25    26    1
    51    21    22    1
@<TRIPOS>MOLECULE
*****
 46 51 0 0 0
SMALL
GASTEIGER

@<TRIPOS>ATOM
      1 C          11.6603   80.6470   25.0673 C.ar    1  UNL1        0.0702
      2 C          11.0291   81.8952   24.9488 C.ar    1  UNL1        0.0191
      3 C          11.7742   83.0287   24.6198 C.ar    1  UNL1        0.0356
      4 C          13.1609   82.9166   24.4329 C.ar    1  UNL1        0.1318
      5 N          13.7516   81.6957   24.5587 N.ar    1  UNL1       -0.2279
      6 C          13.0461   80.5786   24.8778 C.ar    1  UNL1        0.1149
      7 N          13.9593   84.0592   24.0709 N.pl3   1  UNL1       -0.2932
      8 C          14.0710   85.2293   24.9533 C.3     1  UNL1        0.0923
      9 C          13.8157   86.5296   24.1720 C.3     1  UNL1        0.0252
     10 C          14.2746   86.4602   22.6906 C.3     1  UNL1        0.0472
     11 C          15.3492   85.3750   22.4821 C.3     1  UNL1        0.0252
     12 C          14.7848   83.9958   22.8556 C.3     1  UNL1        0.0923
     13 C          14.7726   87.8363   22.2076 C.3     1  UNL1        0.2055
     14 O          16.1472   87.7837   21.8216 O.3     1  UNL1       -0.4724
     15 C          17.2311   88.2817   22.5659 C.ar    1  UNL1        0.1721
     16 C          17.2708   88.2202   23.9743 C.ar    1  UNL1        0.0465
     17 C          18.3713   88.7315   24.6860 C.ar    1  UNL1        0.0787
     18 C          19.4389   89.3011   23.9750 C.ar    1  UNL1        0.0097
     19 C          19.4084   89.3586   22.5812 C.ar    1  UNL1        0.0400
     20 C          18.3141   88.8537   21.8744 C.ar    1  UNL1        0.1677
     21 O          18.3188   88.9326   20.4818 O.3     1  UNL1       -0.5029
     22 H          17.5514   88.5870   19.9182 H       1  UNL1        0.2923
     23 C          18.4090   88.6721   26.1647 C.2     1  UNL1        0.3381
     24 O          17.3865   88.9638   26.8427 O.2     1  UNL1       -0.2451
     25 O          19.5766   88.2934   26.8224 O.3     1  UNL1       -0.4771
     26 H          19.6133   88.2498   27.8339 H       1  UNL1        0.2954
     27 C           9.9458   78.8363   24.5898 C.2     1  UNL1        0.2839
     28 O           9.8514   79.1565   23.3743 O.2     1  UNL1       -0.2665
     29 N          10.9320   79.4606   25.4278 N.am    1  UNL1       -0.2766
     30 H          11.1972   78.9776   26.3161 H       1  UNL1        0.1553
     31 C           8.3339   78.9430   27.3581 C.3     1  UNL1        0.0345
     32 C           8.3649   77.8300   26.3542 C.ar    1  UNL1        0.0202
     33 C           9.0695   77.7878   25.1459 C.ar    1  UNL1        0.1946
     34 O           8.8483   76.6382   24.5336 O.2     1  UNL1       -0.4492
     35 C           8.0360   75.9329   25.2821 C.ar    1  UNL1        0.1452
     36 C           7.5409   74.6596   25.0225 C.ar    1  UNL1        0.0375
     37 C           6.6773   74.0817   25.9689 C.ar    1  UNL1        0.0031
     38 C           6.3228   74.7806   27.1544 C.ar    1  UNL1        0.0002
     39 C           6.8487   76.0754   27.3800 C.ar    1  UNL1        0.0028
     40 C           7.7030   76.6188   26.4192 C.ar    1  UNL1        0.0337
     41 C           5.4096   74.1597   28.1471 C.ar    1  UNL1        0.0000
     42 C           5.0213   72.8126   28.0181 C.ar    1  UNL1        0.0000
     43 C           4.1621   72.2302   28.9551 C.ar    1  UNL1        0.0000
     44 C           3.6809   72.9834   30.0282 C.ar    1  UNL1        0.0000
     45 C           4.0584   74.3207   30.1672 C.ar    1  UNL1        0.0000
     46 C           4.9181   74.9080   29.2339 C.ar    1  UNL1        0.0000
@<TRIPOS>BOND
     1    31    32    1
     2    32    33   ar
     3    33    27    1
     4    27    28    2
     5    27    29   am
     6    29     1    1
     7     1     2   ar
     8     2     3   ar
     9     3     4   ar
    10     4     7    1
    11     7     8    1
    12     8     9    1
    13     9    10    1
    14    10    13    1
    15    13    14    1
    16    14    15    1
    17    15    16   ar
    18    16    17   ar
    19    17    23    1
    20    23    24    2
    21    23    25    1
    22    17    18   ar
    23    18    19   ar
    24    19    20   ar
    25    20    21    1
    26    10    11    1
    27    11    12    1
    28     4     5   ar
    29     5     6   ar
    30    33    34   ar
    31    34    35   ar
    32    35    36   ar
    33    36    37   ar
    34    37    38   ar
    35    38    41    1
    36    41    42   ar
    37    42    43   ar
    38    43    44   ar
    39    44    45   ar
    40    45    46   ar
    41    38    39   ar
    42    39    40   ar
    43    40    32   ar
    44     6     1   ar
    45    40    35   ar
    46    12     7    1
    47    46    41   ar
    48    20    15   ar
    49    29    30    1
    50    25    26    1
    51    21    22    1
@<TRIPOS>MOLECULE
*****
 46 51 0 0 0
SMALL
GASTEIGER

@<TRIPOS>ATOM
      1 C          12.1605   80.9613   25.5382 C.ar    1  UNL1        0.0702
      2 C          11.4024   82.0957   25.2082 C.ar    1  UNL1        0.0191
      3 C          12.0098   83.1879   24.5865 C.ar    1  UNL1        0.0356
      4 C          13.3869   83.1542   24.3164 C.ar    1  UNL1        0.1318
      5 N          14.1026   82.0447   24.6511 N.ar    1  UNL1       -0.2279
      6 C          13.5323   80.9697   25.2565 C.ar    1  UNL1        0.1149
      7 N          14.0444   84.2525   23.6564 N.pl3   1  UNL1       -0.2932
      8 C          13.9939   85.6171   24.1999 C.3     1  UNL1        0.0923
      9 C          13.5942   86.6256   23.1093 C.3     1  UNL1        0.0252
     10 C          14.0858   86.2288   21.6912 C.3     1  UNL1        0.0472
     11 C          15.2901   85.2693   21.7586 C.3     1  UNL1        0.0252
     12 C          14.8939   83.9767   22.4882 C.3     1  UNL1        0.0923
     13 C          14.4184   87.4816   20.8577 C.3     1  UNL1        0.2055
     14 O          13.6697   87.5083   19.6411 O.3     1  UNL1       -0.4724
     15 C          14.0377   86.8884   18.4340 C.ar    1  UNL1        0.1721
     16 C          14.2146   85.4934   18.3257 C.ar    1  UNL1        0.0465
     17 C          14.5860   84.9083   17.1015 C.ar    1  UNL1        0.0787
     18 C          14.7733   85.7316   15.9805 C.ar    1  UNL1        0.0097
     19 C          14.5930   87.1118   16.0797 C.ar    1  UNL1        0.0400
     20 C          14.2272   87.6933   17.2963 C.ar    1  UNL1        0.1677
     21 O          14.0599   89.0768   17.3567 O.3     1  UNL1       -0.5029
     22 H          13.7998   89.5530   18.2120 H       1  UNL1        0.2923
     23 C          14.7777   83.4446   16.9905 C.2     1  UNL1        0.3381
     24 O          14.4713   82.8383   15.9281 O.2     1  UNL1       -0.2451
     25 O          15.2988   82.7218   18.0608 O.3     1  UNL1       -0.4771
     26 H          15.4337   81.7199   17.9954 H       1  UNL1        0.2954
     27 C          11.0670   78.6701   25.5162 C.2     1  UNL1        0.2839
     28 O          11.3404   78.4804   24.3004 O.2     1  UNL1       -0.2665
     29 N          11.5770   79.8261   26.2005 N.am    1  UNL1       -0.2766
     30 H          11.6026   79.8057   27.2452 H       1  UNL1        0.1553
     31 C           7.9463   78.0600   25.1140 C.3     1  UNL1        0.0345
     32 C           8.8928   77.4134   26.0801 C.ar    1  UNL1        0.0202
     33 C          10.2553   77.6821   26.2520 C.ar    1  UNL1        0.1946
     34 O          10.7522   76.9095   27.2016 O.2     1  UNL1       -0.4492
     35 C           9.7824   76.1530   27.6540 C.ar    1  UNL1        0.1452
     36 C           9.8586   75.1938   28.6578 C.ar    1  UNL1        0.0375
     37 C           8.6869   74.4923   28.9908 C.ar    1  UNL1        0.0031
     38 C           7.4629   74.7581   28.3195 C.ar    1  UNL1        0.0002
     39 C           7.4287   75.7427   27.3028 C.ar    1  UNL1        0.0028
     40 C           8.6106   76.4195   26.9979 C.ar    1  UNL1        0.0337
     41 C           6.2314   74.0108   28.6800 C.ar    1  UNL1        0.0000
     42 C           5.8144   72.9059   27.9136 C.ar    1  UNL1        0.0000
     43 C           4.6548   72.2033   28.2561 C.ar    1  UNL1        0.0000
     44 C           3.8996   72.5946   29.3638 C.ar    1  UNL1        0.0000
     45 C           4.3025   73.6891   30.1319 C.ar    1  UNL1        0.0000
     46 C           5.4616   74.3947   29.7947 C.ar    1  UNL1        0.0000
@<TRIPOS>BOND
     1    31    32    1
     2    32    33   ar
     3    33    27    1
     4    27    28    2
     5    27    29   am
     6    29     1    1
     7     1     2   ar
     8     2     3   ar
     9     3     4   ar
    10     4     7    1
    11     7     8    1
    12     8     9    1
    13     9    10    1
    14    10    13    1
    15    13    14    1
    16    14    15    1
    17    15    16   ar
    18    16    17   ar
    19    17    23    1
    20    23    24    2
    21    23    25    1
    22    17    18   ar
    23    18    19   ar
    24    19    20   ar
    25    20    21    1
    26    10    11    1
    27    11    12    1
    28     4     5   ar
    29     5     6   ar
    30    33    34   ar
    31    34    35   ar
    32    35    36   ar
    33    36    37   ar
    34    37    38   ar
    35    38    41    1
    36    41    42   ar
    37    42    43   ar
    38    43    44   ar
    39    44    45   ar
    40    45    46   ar
    41    38    39   ar
    42    39    40   ar
    43    40    32   ar
    44     6     1   ar
    45    40    35   ar
    46    12     7    1
    47    46    41   ar
    48    20    15   ar
    49    29    30    1
    50    25    26    1
    51    21    22    1
@<TRIPOS>MOLECULE
*****
 46 51 0 0 0
SMALL
GASTEIGER

@<TRIPOS>ATOM
      1 C          11.6718   80.7258   25.0809 C.ar    1  UNL1        0.0702
      2 C          11.0445   81.9785   24.9926 C.ar    1  UNL1        0.0191
      3 C          11.7992   83.1232   24.7309 C.ar    1  UNL1        0.0356
      4 C          13.1909   83.0167   24.5815 C.ar    1  UNL1        0.1318
      5 N          13.7775   81.7911   24.6770 N.ar    1  UNL1       -0.2279
      6 C          13.0627   80.6633   24.9307 C.ar    1  UNL1        0.1149
      7 N          13.9999   84.1717   24.2888 N.pl3   1  UNL1       -0.2932
      8 C          14.4637   85.0745   25.3518 C.3     1  UNL1        0.0923
      9 C          14.1730   86.5409   24.9892 C.3     1  UNL1        0.0252
     10 C          14.2350   86.8239   23.4640 C.3     1  UNL1        0.0472
     11 C          15.0901   85.7732   22.7286 C.3     1  UNL1        0.0252
     12 C          14.4815   84.3749   22.9143 C.3     1  UNL1        0.0923
     13 C          14.7519   88.2502   23.1933 C.3     1  UNL1        0.2055
     14 O          13.7718   89.0360   22.5126 O.3     1  UNL1       -0.4724
     15 C          13.6358   89.1557   21.1183 C.ar    1  UNL1        0.1721
     16 C          12.3808   89.1124   20.4763 C.ar    1  UNL1        0.0465
     17 C          12.2835   89.2329   19.0781 C.ar    1  UNL1        0.0787
     18 C          13.4551   89.4043   18.3247 C.ar    1  UNL1        0.0097
     19 C          14.6991   89.4547   18.9548 C.ar    1  UNL1        0.0400
     20 C          14.7961   89.3319   20.3432 C.ar    1  UNL1        0.1677
     21 O          16.0576   89.3838   20.9362 O.3     1  UNL1       -0.5029
     22 H          16.1885   89.2962   21.9367 H       1  UNL1        0.2923
     23 C          10.9662   89.1810   18.4047 C.2     1  UNL1        0.3381
     24 O          10.8706   89.4100   17.1683 O.2     1  UNL1       -0.2451
     25 O           9.8176   88.8786   19.1318 O.3     1  UNL1       -0.4771
     26 H           8.9113   88.8408   18.6808 H       1  UNL1        0.2954
     27 C           9.7775   79.0950   24.6357 C.2     1  UNL1        0.2839
     28 O           9.5017   79.6195   23.5232 O.2     1  UNL1       -0.2665
     29 N          10.9329   79.5271   25.3726 N.am    1  UNL1       -0.2766
     30 H          11.3098   78.8904   26.1110 H       1  UNL1        0.1553
     31 C           8.1794   79.0737   27.4139 C.3     1  UNL1        0.0345
     32 C           8.2376   77.9916   26.3781 C.ar    1  UNL1        0.0202
     33 C           8.9361   78.0053   25.1656 C.ar    1  UNL1        0.1946
     34 O           8.7456   76.8676   24.5214 O.2     1  UNL1       -0.4492
     35 C           7.9590   76.1171   25.2531 C.ar    1  UNL1        0.1452
     36 C           7.5004   74.8376   24.9593 C.ar    1  UNL1        0.0375
     37 C           6.6598   74.2072   25.8928 C.ar    1  UNL1        0.0031
     38 C           6.2916   74.8607   27.0998 C.ar    1  UNL1        0.0002
     39 C           6.7802   76.1637   27.3602 C.ar    1  UNL1        0.0028
     40 C           7.6123   76.7597   26.4113 C.ar    1  UNL1        0.0337
     41 C           5.4031   74.1845   28.0787 C.ar    1  UNL1        0.0000
     42 C           5.0887   72.8195   27.9362 C.ar    1  UNL1        0.0000
     43 C           4.2526   72.1851   28.8602 C.ar    1  UNL1        0.0000
     44 C           3.7211   72.9034   29.9335 C.ar    1  UNL1        0.0000
     45 C           4.0251   74.2579   30.0857 C.ar    1  UNL1        0.0000
     46 C           4.8615   74.8973   29.1655 C.ar    1  UNL1        0.0000
@<TRIPOS>BOND
     1    31    32    1
     2    32    33   ar
     3    33    27    1
     4    27    28    2
     5    27    29   am
     6    29     1    1
     7     1     2   ar
     8     2     3   ar
     9     3     4   ar
    10     4     7    1
    11     7     8    1
    12     8     9    1
    13     9    10    1
    14    10    13    1
    15    13    14    1
    16    14    15    1
    17    15    16   ar
    18    16    17   ar
    19    17    23    1
    20    23    24    2
    21    23    25    1
    22    17    18   ar
    23    18    19   ar
    24    19    20   ar
    25    20    21    1
    26    10    11    1
    27    11    12    1
    28     4     5   ar
    29     5     6   ar
    30    33    34   ar
    31    34    35   ar
    32    35    36   ar
    33    36    37   ar
    34    37    38   ar
    35    38    41    1
    36    41    42   ar
    37    42    43   ar
    38    43    44   ar
    39    44    45   ar
    40    45    46   ar
    41    38    39   ar
    42    39    40   ar
    43    40    32   ar
    44     6     1   ar
    45    40    35   ar
    46    12     7    1
    47    46    41   ar
    48    20    15   ar
    49    29    30    1
    50    25    26    1
    51    21    22    1
@<TRIPOS>MOLECULE
*****
 46 51 0 0 0
SMALL
GASTEIGER

@<TRIPOS>ATOM
      1 C          12.1024   81.6279   25.3673 C.ar    1  UNL1        0.0702
      2 C          12.8692   82.2196   26.3833 C.ar    1  UNL1        0.0191
      3 C          13.6383   83.3523   26.1113 C.ar    1  UNL1        0.0356
      4 C          13.6592   83.8800   24.8107 C.ar    1  UNL1        0.1318
      5 N          12.9112   83.2850   23.8402 N.ar    1  UNL1       -0.2279
      6 C          12.1548   82.1821   24.0822 C.ar    1  UNL1        0.1149
      7 N          14.4229   85.0601   24.4970 N.pl3   1  UNL1       -0.2932
      8 C          14.4970   86.1969   25.4256 C.3     1  UNL1        0.0923
      9 C          14.2034   87.5189   24.6960 C.3     1  UNL1        0.0252
     10 C          14.6672   87.5227   23.2144 C.3     1  UNL1        0.0472
     11 C          15.7749   86.4801   22.9663 C.3     1  UNL1        0.0252
     12 C          15.2523   85.0704   23.2828 C.3     1  UNL1        0.0923
     13 C          15.1236   88.9316   22.7882 C.3     1  UNL1        0.2055
     14 O          14.6880   89.2384   21.4625 O.3     1  UNL1       -0.4724
     15 C          13.8811   88.4215   20.6511 C.ar    1  UNL1        0.1721
     16 C          14.4169   87.6028   19.6354 C.ar    1  UNL1        0.0465
     17 C          13.5781   86.8002   18.8409 C.ar    1  UNL1        0.0787
     18 C          12.1945   86.8178   19.0755 C.ar    1  UNL1        0.0097
     19 C          11.6592   87.6205   20.0836 C.ar    1  UNL1        0.0400
     20 C          12.4919   88.4201   20.8705 C.ar    1  UNL1        0.1677
     21 O          11.9190   89.2115   21.8661 O.3     1  UNL1       -0.5029
     22 H          12.4728   89.8136   22.4635 H       1  UNL1        0.2923
     23 C          14.1410   85.9461   17.7708 C.2     1  UNL1        0.3381
     24 O          14.1824   86.3576   16.5795 O.2     1  UNL1       -0.2451
     25 O          14.6306   84.6772   18.0701 O.3     1  UNL1       -0.4771
     26 H          15.0176   84.0846   17.3453 H       1  UNL1        0.2954
     27 C          10.1211   80.1189   24.8742 C.2     1  UNL1        0.2839
     28 O           9.8390   80.7299   23.8083 O.2     1  UNL1       -0.2665
     29 N          11.3161   80.4469   25.6015 N.am    1  UNL1       -0.2766
     30 H          11.6831   79.7450   26.2836 H       1  UNL1        0.1553
     31 C           9.1497   79.6258   27.8885 C.3     1  UNL1        0.0345
     32 C           8.8186   78.8156   26.6714 C.ar    1  UNL1        0.0202
     33 C           9.2442   79.0350   25.3565 C.ar    1  UNL1        0.1946
     34 O           8.7452   78.1072   24.5591 O.2     1  UNL1       -0.4492
     35 C           8.0173   77.2978   25.2889 C.ar    1  UNL1        0.1452
     36 C           7.3093   76.1808   24.8593 C.ar    1  UNL1        0.0375
     37 C           6.5902   75.4463   25.8179 C.ar    1  UNL1        0.0031
     38 C           6.5889   75.8365   27.1844 C.ar    1  UNL1        0.0002
     39 C           7.3227   76.9808   27.5798 C.ar    1  UNL1        0.0028
     40 C           8.0249   77.6865   26.6016 C.ar    1  UNL1        0.0337
     41 C           5.8256   75.0525   28.1882 C.ar    1  UNL1        0.0000
     42 C           5.8348   75.4258   29.5457 C.ar    1  UNL1        0.0000
     43 C           5.1142   74.6862   30.4886 C.ar    1  UNL1        0.0000
     44 C           4.3788   73.5681   30.0893 C.ar    1  UNL1        0.0000
     45 C           4.3620   73.1872   28.7458 C.ar    1  UNL1        0.0000
     46 C           5.0798   73.9236   27.7984 C.ar    1  UNL1        0.0000
@<TRIPOS>BOND
     1    31    32    1
     2    32    33   ar
     3    33    27    1
     4    27    28    2
     5    27    29   am
     6    29     1    1
     7     1     2   ar
     8     2     3   ar
     9     3     4   ar
    10     4     7    1
    11     7     8    1
    12     8     9    1
    13     9    10    1
    14    10    13    1
    15    13    14    1
    16    14    15    1
    17    15    16   ar
    18    16    17   ar
    19    17    23    1
    20    23    24    2
    21    23    25    1
    22    17    18   ar
    23    18    19   ar
    24    19    20   ar
    25    20    21    1
    26    10    11    1
    27    11    12    1
    28     4     5   ar
    29     5     6   ar
    30    33    34   ar
    31    34    35   ar
    32    35    36   ar
    33    36    37   ar
    34    37    38   ar
    35    38    41    1
    36    41    42   ar
    37    42    43   ar
    38    43    44   ar
    39    44    45   ar
    40    45    46   ar
    41    38    39   ar
    42    39    40   ar
    43    40    32   ar
    44     6     1   ar
    45    40    35   ar
    46    12     7    1
    47    46    41   ar
    48    20    15   ar
    49    29    30    1
    50    25    26    1
    51    21    22    1
@<TRIPOS>MOLECULE
*****
 46 51 0 0 0
SMALL
GASTEIGER

@<TRIPOS>ATOM
      1 C          10.2164   79.7910   23.8125 C.ar    1  UNL1        0.0702
      2 C           9.9744   78.9735   24.9276 C.ar    1  UNL1        0.0191
      3 C           9.2362   77.7972   24.7871 C.ar    1  UNL1        0.0356
      4 C           8.7171   77.4506   23.5297 C.ar    1  UNL1        0.1318
      5 N           8.9605   78.2628   22.4637 N.ar    1  UNL1       -0.2279
      6 C           9.6768   79.4123   22.5770 C.ar    1  UNL1        0.1149
      7 N           7.9697   76.2340   23.3412 N.pl3   1  UNL1       -0.2932
      8 C           8.4786   75.1422   22.4992 C.3     1  UNL1        0.0923
      9 C           7.4027   74.6709   21.5059 C.3     1  UNL1        0.0252
     10 C           5.9565   74.7972   22.0559 C.3     1  UNL1        0.0472
     11 C           5.9382   74.8217   23.5970 C.3     1  UNL1        0.0252
     12 C           6.7360   76.0284   24.1144 C.3     1  UNL1        0.0923
     13 C           5.0623   73.6687   21.5067 C.3     1  UNL1        0.2055
     14 O           4.0317   74.1878   20.6641 O.3     1  UNL1       -0.4724
     15 C           3.5754   75.5176   20.6452 C.ar    1  UNL1        0.1721
     16 C           2.6486   76.0105   21.5871 C.ar    1  UNL1        0.0465
     17 C           2.2123   77.3469   21.5355 C.ar    1  UNL1        0.0787
     18 C           2.7171   78.1915   20.5348 C.ar    1  UNL1        0.0097
     19 C           3.6395   77.7114   19.6043 C.ar    1  UNL1        0.0400
     20 C           4.0705   76.3833   19.6535 C.ar    1  UNL1        0.1677
     21 O           4.9907   75.9395   18.7038 O.3     1  UNL1       -0.5029
     22 H           5.3348   74.9870   18.6885 H       1  UNL1        0.2923
     23 C           1.2346   77.8616   22.5208 C.2     1  UNL1        0.3381
     24 O           1.3335   77.5549   23.7399 O.2     1  UNL1       -0.2451
     25 O           0.1938   78.6905   22.1096 O.3     1  UNL1       -0.4771
     26 H          -0.4808   79.0479   22.7755 H       1  UNL1        0.2954
     27 C          12.3007   81.1133   24.4067 C.2     1  UNL1        0.2839
     28 O          13.0041   80.0741   24.5252 O.2     1  UNL1       -0.2665
     29 N          10.9516   81.0221   23.9206 N.am    1  UNL1       -0.2766
     30 H          10.5065   81.8897   23.5441 H       1  UNL1        0.1553
     31 C          13.0500   82.2295   27.3164 C.3     1  UNL1        0.0345
     32 C          13.2035   82.9247   25.9971 C.ar    1  UNL1        0.0202
     33 C          12.8758   82.4332   24.7284 C.ar    1  UNL1        0.1946
     34 O          13.1534   83.3389   23.8073 O.2     1  UNL1       -0.4492
     35 C          13.6449   84.3920   24.4131 C.ar    1  UNL1        0.1452
     36 C          14.0702   85.5798   23.8285 C.ar    1  UNL1        0.0375
     37 C          14.5658   86.5897   24.6712 C.ar    1  UNL1        0.0031
     38 C          14.6289   86.3990   26.0780 C.ar    1  UNL1        0.0002
     39 C          14.1861   85.1741   26.6327 C.ar    1  UNL1        0.0028
     40 C          13.7003   84.1934   25.7665 C.ar    1  UNL1        0.0337
     41 C          15.1543   87.4733   26.9583 C.ar    1  UNL1        0.0000
     42 C          14.5883   87.6995   28.2275 C.ar    1  UNL1        0.0000
     43 C          15.0858   88.7112   29.0547 C.ar    1  UNL1        0.0000
     44 C          16.1501   89.5074   28.6261 C.ar    1  UNL1        0.0000
     45 C          16.7199   89.2932   27.3692 C.ar    1  UNL1        0.0000
     46 C          16.2273   88.2824   26.5382 C.ar    1  UNL1        0.0000
@<TRIPOS>BOND
     1    31    32    1
     2    32    33   ar
     3    33    27    1
     4    27    28    2
     5    27    29   am
     6    29     1    1
     7     1     2   ar
     8     2     3   ar
     9     3     4   ar
    10     4     7    1
    11     7     8    1
    12     8     9    1
    13     9    10    1
    14    10    13    1
    15    13    14    1
    16    14    15    1
    17    15    16   ar
    18    16    17   ar
    19    17    23    1
    20    23    24    2
    21    23    25    1
    22    17    18   ar
    23    18    19   ar
    24    19    20   ar
    25    20    21    1
    26    10    11    1
    27    11    12    1
    28     4     5   ar
    29     5     6   ar
    30    33    34   ar
    31    34    35   ar
    32    35    36   ar
    33    36    37   ar
    34    37    38   ar
    35    38    41    1
    36    41    42   ar
    37    42    43   ar
    38    43    44   ar
    39    44    45   ar
    40    45    46   ar
    41    38    39   ar
    42    39    40   ar
    43    40    32   ar
    44     6     1   ar
    45    40    35   ar
    46    12     7    1
    47    46    41   ar
    48    20    15   ar
    49    29    30    1
    50    25    26    1
    51    21    22    1
@<TRIPOS>MOLECULE
*****
 46 51 0 0 0
SMALL
GASTEIGER

@<TRIPOS>ATOM
      1 C          12.0018   80.7348   25.4331 C.ar    1  UNL1        0.0702
      2 C          11.2544   81.8918   25.1626 C.ar    1  UNL1        0.0191
      3 C          11.8708   83.0068   24.5921 C.ar    1  UNL1        0.0356
      4 C          13.2463   82.9720   24.3140 C.ar    1  UNL1        0.1318
      5 N          13.9515   81.8399   24.5906 N.ar    1  UNL1       -0.2279
      6 C          13.3724   80.7426   25.1455 C.ar    1  UNL1        0.1149
      7 N          13.9125   84.0943   23.7053 N.pl3   1  UNL1       -0.2932
      8 C          13.8039   85.4487   24.2655 C.3     1  UNL1        0.0923
      9 C          13.4390   86.4657   23.1706 C.3     1  UNL1        0.0252
     10 C          14.0118   86.1019   21.7743 C.3     1  UNL1        0.0472
     11 C          15.2320   85.1673   21.8900 C.3     1  UNL1        0.0252
     12 C          14.8272   83.8551   22.5790 C.3     1  UNL1        0.0923
     13 C          14.3594   87.3745   20.9777 C.3     1  UNL1        0.2055
     14 O          13.5257   87.5082   19.8251 O.3     1  UNL1       -0.4724
     15 C          13.9018   87.2273   18.4998 C.ar    1  UNL1        0.1721
     16 C          14.2339   88.2422   17.5786 C.ar    1  UNL1        0.0465
     17 C          14.6032   87.9235   16.2591 C.ar    1  UNL1        0.0787
     18 C          14.6443   86.5761   15.8685 C.ar    1  UNL1        0.0097
     19 C          14.3234   85.5671   16.7773 C.ar    1  UNL1        0.0400
     20 C          13.9536   85.8838   18.0869 C.ar    1  UNL1        0.1677
     21 O          13.6366   84.8475   18.9652 O.3     1  UNL1       -0.5029
     22 H          13.3579   85.0178   19.9240 H       1  UNL1        0.2923
     23 C          14.9454   88.9900   15.2912 C.2     1  UNL1        0.3381
     24 O          16.0957   89.5065   15.2890 O.2     1  UNL1       -0.2451
     25 O          13.9979   89.4343   14.3723 O.3     1  UNL1       -0.4771
     26 H          14.2216   90.1638   13.7058 H       1  UNL1        0.2954
     27 C          10.5507   78.6532   25.3500 C.2     1  UNL1        0.2839
     28 O          10.4779   78.6760   24.0919 O.2     1  UNL1       -0.2665
     29 N          11.4090   79.5747   26.0419 N.am    1  UNL1       -0.2766
     30 H          11.6875   79.3436   27.0225 H       1  UNL1        0.1553
     31 C           7.4939   77.8058   24.8904 C.3     1  UNL1        0.0345
     32 C           8.4499   77.2785   25.9177 C.ar    1  UNL1        0.0202
     33 C           9.7845   77.6507   26.1145 C.ar    1  UNL1        0.1946
     34 O          10.3014   76.9657   27.1191 O.2     1  UNL1       -0.4492
     35 C           9.3711   76.1679   27.5835 C.ar    1  UNL1        0.1452
     36 C           9.4795   75.2703   28.6400 C.ar    1  UNL1        0.0375
     37 C           8.3482   74.5069   28.9762 C.ar    1  UNL1        0.0031
     38 C           7.1317   74.6508   28.2558 C.ar    1  UNL1        0.0002
     39 C           7.0639   75.5759   27.1863 C.ar    1  UNL1        0.0028
     40 C           8.2063   76.3169   26.8797 C.ar    1  UNL1        0.0337
     41 C           5.9430   73.8390   28.6203 C.ar    1  UNL1        0.0000
     42 C           5.6767   72.6236   27.9613 C.ar    1  UNL1        0.0000
     43 C           4.5570   71.8607   28.3075 C.ar    1  UNL1        0.0000
     44 C           3.6920   72.3008   29.3117 C.ar    1  UNL1        0.0000
     45 C           3.9450   73.5047   29.9726 C.ar    1  UNL1        0.0000
     46 C           5.0636   74.2713   29.6314 C.ar    1  UNL1        0.0000
@<TRIPOS>BOND
     1    31    32    1
     2    32    33   ar
     3    33    27    1
     4    27    28    2
     5    27    29   am
     6    29     1    1
     7     1     2   ar
     8     2     3   ar
     9     3     4   ar
    10     4     7    1
    11     7     8    1
    12     8     9    1
    13     9    10    1
    14    10    13    1
    15    13    14    1
    16    14    15    1
    17    15    16   ar
    18    16    17   ar
    19    17    23    1
    20    23    24    2
    21    23    25    1
    22    17    18   ar
    23    18    19   ar
    24    19    20   ar
    25    20    21    1
    26    10    11    1
    27    11    12    1
    28     4     5   ar
    29     5     6   ar
    30    33    34   ar
    31    34    35   ar
    32    35    36   ar
    33    36    37   ar
    34    37    38   ar
    35    38    41    1
    36    41    42   ar
    37    42    43   ar
    38    43    44   ar
    39    44    45   ar
    40    45    46   ar
    41    38    39   ar
    42    39    40   ar
    43    40    32   ar
    44     6     1   ar
    45    40    35   ar
    46    12     7    1
    47    46    41   ar
    48    20    15   ar
    49    29    30    1
    50    25    26    1
    51    21    22    1
@<TRIPOS>MOLECULE
*****
 46 51 0 0 0
SMALL
GASTEIGER

@<TRIPOS>ATOM
      1 C          10.2135   79.8138   23.6362 C.ar    1  UNL1        0.0702
      2 C           9.8212   79.0587   24.7526 C.ar    1  UNL1        0.0191
      3 C           9.0513   77.9067   24.5840 C.ar    1  UNL1        0.0356
      4 C           8.6515   77.5228   23.2943 C.ar    1  UNL1        0.1318
      5 N           9.0397   78.2748   22.2270 N.ar    1  UNL1       -0.2279
      6 C           9.7897   79.3996   22.3673 C.ar    1  UNL1        0.1149
      7 N           7.8757   76.3287   23.0787 N.pl3   1  UNL1       -0.2932
      8 C           8.5151   75.0147   22.9217 C.3     1  UNL1        0.0923
      9 C           7.9666   74.2842   21.6840 C.3     1  UNL1        0.0252
     10 C           6.4807   74.6150   21.3797 C.3     1  UNL1        0.0472
     11 C           5.7459   75.1223   22.6361 C.3     1  UNL1        0.0252
     12 C           6.4092   76.4088   23.1511 C.3     1  UNL1        0.0923
     13 C           5.7630   73.3952   20.7699 C.3     1  UNL1        0.2055
     14 O           4.3465   73.5814   20.7552 O.3     1  UNL1       -0.4724
     15 C           3.6475   74.5209   19.9770 C.ar    1  UNL1        0.1721
     16 C           4.3058   75.5094   19.2163 C.ar    1  UNL1        0.0465
     17 C           3.5731   76.4351   18.4512 C.ar    1  UNL1        0.0787
     18 C           2.1716   76.3599   18.4476 C.ar    1  UNL1        0.0097
     19 C           1.5149   75.3799   19.1928 C.ar    1  UNL1        0.0400
     20 C           2.2425   74.4625   19.9552 C.ar    1  UNL1        0.1677
     21 O           1.5501   73.4997   20.6895 O.3     1  UNL1       -0.5029
     22 H           2.0246   72.8126   21.2628 H       1  UNL1        0.2923
     23 C           4.2648   77.4762   17.6582 C.2     1  UNL1        0.3381
     24 O           4.1441   78.6948   17.9591 O.2     1  UNL1       -0.2451
     25 O           5.0566   77.1190   16.5696 O.3     1  UNL1       -0.4771
     26 H           5.5341   77.8235   16.0201 H       1  UNL1        0.2954
     27 C          12.2420   81.0966   24.4640 C.2     1  UNL1        0.2839
     28 O          12.8606   80.0437   24.7761 O.2     1  UNL1       -0.2665
     29 N          10.9863   81.0191   23.7700 N.am    1  UNL1       -0.2766
     30 H          10.6547   81.8692   23.2600 H       1  UNL1        0.1553
     31 C          12.9753   82.2418   27.3664 C.3     1  UNL1        0.0345
     32 C          13.1480   82.9188   26.0400 C.ar    1  UNL1        0.0202
     33 C          12.8273   82.4148   24.7746 C.ar    1  UNL1        0.1946
     34 O          13.1225   83.3059   23.8449 O.2     1  UNL1       -0.4492
     35 C          13.6188   84.3617   24.4420 C.ar    1  UNL1        0.1452
     36 C          14.0614   85.5378   23.8467 C.ar    1  UNL1        0.0375
     37 C          14.5592   86.5533   24.6813 C.ar    1  UNL1        0.0031
     38 C          14.6073   86.3797   26.0910 C.ar    1  UNL1        0.0002
     39 C          14.1470   85.1663   26.6567 C.ar    1  UNL1        0.0028
     40 C          13.6596   84.1796   25.7983 C.ar    1  UNL1        0.0337
     41 C          15.1351   87.4598   26.9627 C.ar    1  UNL1        0.0000
     42 C          14.6084   87.6598   28.2530 C.ar    1  UNL1        0.0000
     43 C          15.1082   88.6771   29.0721 C.ar    1  UNL1        0.0000
     44 C          16.1357   89.5048   28.6142 C.ar    1  UNL1        0.0000
     45 C          16.6663   89.3167   27.3362 C.ar    1  UNL1        0.0000
     46 C          16.1712   88.3005   26.5131 C.ar    1  UNL1        0.0000
@<TRIPOS>BOND
     1    31    32    1
     2    32    33   ar
     3    33    27    1
     4    27    28    2
     5    27    29   am
     6    29     1    1
     7     1     2   ar
     8     2     3   ar
     9     3     4   ar
    10     4     7    1
    11     7     8    1
    12     8     9    1
    13     9    10    1
    14    10    13    1
    15    13    14    1
    16    14    15    1
    17    15    16   ar
    18    16    17   ar
    19    17    23    1
    20    23    24    2
    21    23    25    1
    22    17    18   ar
    23    18    19   ar
    24    19    20   ar
    25    20    21    1
    26    10    11    1
    27    11    12    1
    28     4     5   ar
    29     5     6   ar
    30    33    34   ar
    31    34    35   ar
    32    35    36   ar
    33    36    37   ar
    34    37    38   ar
    35    38    41    1
    36    41    42   ar
    37    42    43   ar
    38    43    44   ar
    39    44    45   ar
    40    45    46   ar
    41    38    39   ar
    42    39    40   ar
    43    40    32   ar
    44     6     1   ar
    45    40    35   ar
    46    12     7    1
    47    46    41   ar
    48    20    15   ar
    49    29    30    1
    50    25    26    1
    51    21    22    1
