@<TRIPOS>MOLECULE
*****
 38 42 0 0 0
SMALL
GASTEIGER

@<TRIPOS>ATOM
      1 C          47.8719   10.6799  -21.4327 C.2     1  UNL1        0.2507
      2 O          47.3039    9.5788  -21.6656 O.2     1  UNL1       -0.2698
      3 N          48.2711   11.5424  -22.5251 N.am    1  UNL1       -0.2466
      4 C          48.7347   12.9127  -22.2757 C.3     1  UNL1        0.1434
      5 C          47.5297   13.8288  -22.0911 C.3     1  UNL1        0.2269
      6 O          46.3981   13.3484  -22.8158 O.3     1  UNL1       -0.4738
      7 C          46.4280   13.0712  -24.1869 C.ar    1  UNL1        0.1385
      8 C          45.5787   13.8128  -25.0135 C.ar    1  UNL1        0.0367
      9 C          45.5506   13.5937  -26.3893 C.ar    1  UNL1        0.0031
     10 C          46.3614   12.6073  -26.9679 C.ar    1  UNL1        0.0001
     11 C          47.2006   11.8435  -26.1393 C.ar    1  UNL1        0.0028
     12 C          47.2588   12.0630  -24.7487 C.ar    1  UNL1        0.0581
     13 C          48.1222   11.1090  -23.9268 C.3     1  UNL1        0.2216
     14 C          46.3220   12.3655  -28.4324 C.ar    1  UNL1        0.0015
     15 C          46.5782   11.0672  -28.9561 C.ar    1  UNL1        0.0016
     16 C          46.5441   10.8289  -30.3429 C.ar    1  UNL1        0.0206
     17 C          46.2523   11.9022  -31.1777 C.ar    1  UNL1        0.0985
     18 N          46.1698   11.9029  -32.5204 N.ar    1  UNL1       -0.2241
     19 C          45.8646   13.1970  -32.8032 C.ar    1  UNL1        0.1750
     20 N          45.7578   13.9802  -31.7030 N.ar    1  UNL1       -0.3349
     21 C          46.0048   13.1462  -30.6863 C.ar    1  UNL1        0.0757
     22 C          46.0276   13.4267  -29.3230 C.ar    1  UNL1        0.0185
     23 H          45.5341   14.9993  -31.6617 H       1  UNL1        0.1675
     24 C          47.0413   11.6235  -19.2377 C.ar    1  UNL1       -0.0165
     25 C          47.3150   11.9976  -17.9103 C.ar    1  UNL1        0.0142
     26 C          48.5884   11.8075  -17.3605 C.ar    1  UNL1        0.1054
     27 C          49.6092   11.2664  -18.1483 C.ar    1  UNL1        0.0185
     28 C          49.3576   10.9041  -19.4720 C.ar    1  UNL1        0.0055
     29 C          48.0797   11.0682  -20.0247 C.ar    1  UNL1        0.0498
     30 S          48.9131   12.2932  -15.7000 S.O2    1  UNL1        0.0104
     31 C          50.6705   12.3693  -15.4413 C.3     1  UNL1        0.1816
     32 O          48.3059   13.6430  -15.4379 O.2     1  UNL1       -0.1686
     33 O          48.3082   11.2994  -14.7482 O.2     1  UNL1       -0.1686
     34 C          45.6664   11.9010  -19.8031 C.3     1  UNL1        0.0265
     35 C          43.2290   11.8612  -19.1507 C.3     1  UNL1        0.0004
     36 C          44.6540   12.1308  -18.6762 C.3     1  UNL1        0.0047
     37 O          49.4074   11.0263  -24.5208 O.3     1  UNL1       -0.3313
     38 C          50.0166    9.7935  -24.2044 C.3     1  UNL1        0.1764
@<TRIPOS>BOND
     1    35    36    1
     2    36    34    1
     3    34    24    1
     4    24    25   ar
     5    25    26   ar
     6    26    30    1
     7    30    31    1
     8    30    32    2
     9    30    33    2
    10    26    27   ar
    11    27    28   ar
    12    28    29   ar
    13    29     1    1
    14     1     2    2
    15     1     3   am
    16     3     4    1
    17     4     5    1
    18     5     6    1
    19     6     7    1
    20     7     8   ar
    21     8     9   ar
    22     9    10   ar
    23    10    14    1
    24    14    15   ar
    25    15    16   ar
    26    16    17   ar
    27    17    18   ar
    28    18    19   ar
    29    19    20   ar
    30    20    21   ar
    31    21    22   ar
    32    10    11   ar
    33    11    12   ar
    34    12    13    1
    35    13    37    1
    36    37    38    1
    37    29    24   ar
    38    13     3    1
    39    12     7   ar
    40    22    14   ar
    41    21    17   ar
    42    20    23    1
@<TRIPOS>MOLECULE
*****
 38 42 0 0 0
SMALL
GASTEIGER

@<TRIPOS>ATOM
      1 C          49.7694   11.3297  -21.5114 C.2     1  UNL1        0.2507
      2 O          50.1548   10.1962  -21.9062 O.2     1  UNL1       -0.2698
      3 N          49.2416   12.2925  -22.4554 N.am    1  UNL1       -0.2466
      4 C          48.5929   13.5259  -21.9943 C.3     1  UNL1        0.1434
      5 C          47.1489   13.2244  -21.6084 C.3     1  UNL1        0.2269
      6 O          46.6306   12.1270  -22.3590 O.3     1  UNL1       -0.4738
      7 C          46.6423   12.0819  -23.7574 C.ar    1  UNL1        0.1385
      8 C          45.4082   12.0148  -24.4110 C.ar    1  UNL1        0.0367
      9 C          45.3382   11.9658  -25.8018 C.ar    1  UNL1        0.0031
     10 C          46.5095   11.9616  -26.5719 C.ar    1  UNL1        0.0001
     11 C          47.7533   12.0063  -25.9199 C.ar    1  UNL1        0.0028
     12 C          47.8454   12.0767  -24.5156 C.ar    1  UNL1        0.0581
     13 C          49.2428   12.0136  -23.9036 C.3     1  UNL1        0.2216
     14 C          46.4349   11.8967  -28.0535 C.ar    1  UNL1        0.0015
     15 C          46.6833   10.6722  -28.7351 C.ar    1  UNL1        0.0016
     16 C          46.6158   10.6015  -30.1392 C.ar    1  UNL1        0.0206
     17 C          46.2990   11.7649  -30.8321 C.ar    1  UNL1        0.0985
     18 N          46.1832   11.9259  -32.1626 N.ar    1  UNL1       -0.2241
     19 C          45.8658   13.2423  -32.2808 C.ar    1  UNL1        0.1750
     20 N          45.7831   13.8874  -31.0924 N.ar    1  UNL1       -0.3349
     21 C          46.0587   12.9394  -30.1892 C.ar    1  UNL1        0.0757
     22 C          46.1141   13.0547  -28.8030 C.ar    1  UNL1        0.0185
     23 H          45.5564   14.8926  -30.9238 H       1  UNL1        0.1675
     24 C          50.9241   12.3360  -19.4983 C.ar    1  UNL1       -0.0165
     25 C          50.9438   12.5560  -18.1099 C.ar    1  UNL1        0.0142
     26 C          49.9006   12.0967  -17.2969 C.ar    1  UNL1        0.1054
     27 C          48.8403   11.3851  -17.8667 C.ar    1  UNL1        0.0185
     28 C          48.8136   11.1455  -19.2410 C.ar    1  UNL1        0.0055
     29 C          49.8413   11.6219  -20.0671 C.ar    1  UNL1        0.0498
     30 S          49.9503   12.3728  -15.5591 S.O2    1  UNL1        0.0104
     31 C          51.6097   12.7907  -15.0761 C.3     1  UNL1        0.1816
     32 O          49.0214   13.4975  -15.1970 O.2     1  UNL1       -0.1686
     33 O          49.5129   11.1327  -14.8309 O.2     1  UNL1       -0.1686
     34 C          52.1012   12.8020  -20.3256 C.3     1  UNL1        0.0265
     35 C          52.3157   14.6759  -22.0022 C.3     1  UNL1        0.0004
     36 C          52.0429   14.3174  -20.5443 C.3     1  UNL1        0.0047
     37 O          50.0715   12.9634  -24.5534 O.3     1  UNL1       -0.3313
     38 C          51.3007   12.3746  -24.9188 C.3     1  UNL1        0.1764
@<TRIPOS>BOND
     1    35    36    1
     2    36    34    1
     3    34    24    1
     4    24    25   ar
     5    25    26   ar
     6    26    30    1
     7    30    31    1
     8    30    32    2
     9    30    33    2
    10    26    27   ar
    11    27    28   ar
    12    28    29   ar
    13    29     1    1
    14     1     2    2
    15     1     3   am
    16     3     4    1
    17     4     5    1
    18     5     6    1
    19     6     7    1
    20     7     8   ar
    21     8     9   ar
    22     9    10   ar
    23    10    14    1
    24    14    15   ar
    25    15    16   ar
    26    16    17   ar
    27    17    18   ar
    28    18    19   ar
    29    19    20   ar
    30    20    21   ar
    31    21    22   ar
    32    10    11   ar
    33    11    12   ar
    34    12    13    1
    35    13    37    1
    36    37    38    1
    37    29    24   ar
    38    13     3    1
    39    12     7   ar
    40    22    14   ar
    41    21    17   ar
    42    20    23    1
@<TRIPOS>MOLECULE
*****
 38 42 0 0 0
SMALL
GASTEIGER

@<TRIPOS>ATOM
      1 C          46.2760   13.4184  -25.5318 C.2     1  UNL1        0.2507
      2 O          45.2030   13.3835  -24.8709 O.2     1  UNL1       -0.2698
      3 N          47.5515   13.5010  -24.8515 N.am    1  UNL1       -0.2466
      4 C          48.8116   13.3273  -25.5842 C.3     1  UNL1        0.1434
      5 C          49.0897   11.8392  -25.7670 C.3     1  UNL1        0.2269
      6 O          48.5169   11.0716  -24.7091 O.3     1  UNL1       -0.4738
      7 C          48.7757   11.3187  -23.3565 C.ar    1  UNL1        0.1385
      8 C          49.3932   10.3021  -22.6218 C.ar    1  UNL1        0.0367
      9 C          49.6823   10.4728  -21.2693 C.ar    1  UNL1        0.0031
     10 C          49.3382   11.6636  -20.6146 C.ar    1  UNL1        0.0001
     11 C          48.6971   12.6801  -21.3424 C.ar    1  UNL1        0.0028
     12 C          48.4143   12.5355  -22.7152 C.ar    1  UNL1        0.0581
     13 C          47.6210   13.6541  -23.3863 C.3     1  UNL1        0.2216
     14 C          49.6350   11.8403  -19.1704 C.ar    1  UNL1        0.0015
     15 C          48.6480   11.5414  -18.1895 C.ar    1  UNL1        0.0016
     16 C          48.9201   11.7068  -16.8185 C.ar    1  UNL1        0.0206
     17 C          50.1812   12.1700  -16.4595 C.ar    1  UNL1        0.0985
     18 N          50.6522   12.4010  -15.2208 N.ar    1  UNL1       -0.2241
     19 C          51.9182   12.8369  -15.4558 C.ar    1  UNL1        0.1750
     20 N          52.2390   12.8820  -16.7712 N.ar    1  UNL1       -0.3349
     21 C          51.1313   12.4569  -17.3898 C.ar    1  UNL1        0.0757
     22 C          50.9058   12.3077  -18.7553 C.ar    1  UNL1        0.0185
     23 H          53.1432   13.1803  -17.2000 H       1  UNL1        0.1675
     24 C          46.0489   14.4911  -27.8113 C.ar    1  UNL1       -0.0165
     25 C          45.9420   14.3399  -29.2050 C.ar    1  UNL1        0.0142
     26 C          45.9917   13.0708  -29.7939 C.ar    1  UNL1        0.1054
     27 C          46.1199   11.9368  -28.9858 C.ar    1  UNL1        0.0185
     28 C          46.2120   12.0690  -27.5998 C.ar    1  UNL1        0.0055
     29 C          46.1872   13.3369  -27.0021 C.ar    1  UNL1        0.0498
     30 S          45.8446   12.9028  -31.5400 S.O2    1  UNL1        0.0104
     31 C          44.2225   12.2935  -31.9386 C.3     1  UNL1        0.1816
     32 O          46.0578   14.2372  -32.1981 O.2     1  UNL1       -0.1686
     33 O          46.8814   11.9419  -32.0511 O.2     1  UNL1       -0.1686
     34 C          45.9329   15.8776  -27.2187 C.3     1  UNL1        0.0265
     35 C          48.2970   16.7379  -27.0207 C.3     1  UNL1        0.0004
     36 C          46.9942   16.8102  -27.8117 C.3     1  UNL1        0.0047
     37 O          48.2339   14.8967  -23.0831 O.3     1  UNL1       -0.3313
     38 C          47.3097   15.9514  -23.2391 C.3     1  UNL1        0.1764
@<TRIPOS>BOND
     1    35    36    1
     2    36    34    1
     3    34    24    1
     4    24    25   ar
     5    25    26   ar
     6    26    30    1
     7    30    31    1
     8    30    32    2
     9    30    33    2
    10    26    27   ar
    11    27    28   ar
    12    28    29   ar
    13    29     1    1
    14     1     2    2
    15     1     3   am
    16     3     4    1
    17     4     5    1
    18     5     6    1
    19     6     7    1
    20     7     8   ar
    21     8     9   ar
    22     9    10   ar
    23    10    14    1
    24    14    15   ar
    25    15    16   ar
    26    16    17   ar
    27    17    18   ar
    28    18    19   ar
    29    19    20   ar
    30    20    21   ar
    31    21    22   ar
    32    10    11   ar
    33    11    12   ar
    34    12    13    1
    35    13    37    1
    36    37    38    1
    37    29    24   ar
    38    13     3    1
    39    12     7   ar
    40    22    14   ar
    41    21    17   ar
    42    20    23    1
@<TRIPOS>MOLECULE
*****
 38 42 0 0 0
SMALL
GASTEIGER

@<TRIPOS>ATOM
      1 C          47.2848   13.0605  -21.5428 C.2     1  UNL1        0.2507
      2 O          47.2946   14.2734  -21.8864 O.2     1  UNL1       -0.2698
      3 N          46.9189   12.0334  -22.4956 N.am    1  UNL1       -0.2466
      4 C          47.1064   10.6114  -22.1836 C.3     1  UNL1        0.1434
      5 C          48.5595   10.2249  -22.4377 C.3     1  UNL1        0.2269
      6 O          49.1404   11.0366  -23.4576 O.3     1  UNL1       -0.4738
      7 C          48.5821   11.1810  -24.7324 C.ar    1  UNL1        0.1385
      8 C          49.3434   10.7494  -25.8227 C.ar    1  UNL1        0.0367
      9 C          48.8559   10.8612  -27.1233 C.ar    1  UNL1        0.0031
     10 C          47.5975   11.4302  -27.3634 C.ar    1  UNL1        0.0001
     11 C          46.8373   11.8862  -26.2734 C.ar    1  UNL1        0.0028
     12 C          47.3032   11.7639  -24.9492 C.ar    1  UNL1        0.0581
     13 C          46.4484   12.3866  -23.8480 C.3     1  UNL1        0.2216
     14 C          47.0837   11.5606  -28.7504 C.ar    1  UNL1        0.0015
     15 C          47.0717   10.4368  -29.6237 C.ar    1  UNL1        0.0016
     16 C          46.5876   10.5514  -30.9403 C.ar    1  UNL1        0.0206
     17 C          46.1238   11.7953  -31.3542 C.ar    1  UNL1        0.0985
     18 N          45.6243   12.1297  -32.5576 N.ar    1  UNL1       -0.2241
     19 C          45.3364   13.4498  -32.4086 C.ar    1  UNL1        0.1750
     20 N          45.6350   13.9329  -31.1786 N.ar    1  UNL1       -0.3349
     21 C          46.1301   12.8747  -30.5263 C.ar    1  UNL1        0.0757
     22 C          46.5991   12.8068  -29.2174 C.ar    1  UNL1        0.0185
     23 H          45.5070   14.9069  -30.8247 H       1  UNL1        0.1675
     24 C          46.7907   12.1418  -19.2384 C.ar    1  UNL1       -0.0165
     25 C          47.2334   11.8757  -17.9308 C.ar    1  UNL1        0.0142
     26 C          48.5487   12.1636  -17.5472 C.ar    1  UNL1        0.1054
     27 C          49.4255   12.7497  -18.4654 C.ar    1  UNL1        0.0185
     28 C          48.9969   13.0340  -19.7624 C.ar    1  UNL1        0.0055
     29 C          47.6890   12.7276  -20.1636 C.ar    1  UNL1        0.0498
     30 S          49.0795   11.8329  -15.9017 S.O2    1  UNL1        0.0104
     31 C          49.1710   13.3591  -14.9942 C.3     1  UNL1        0.1816
     32 O          48.1057   10.9050  -15.2309 O.2     1  UNL1       -0.1686
     33 O          50.4328   11.1790  -15.9219 O.2     1  UNL1       -0.1686
     34 C          45.3456   11.8655  -19.5877 C.3     1  UNL1        0.0265
     35 C          42.9741   11.9622  -18.7302 C.3     1  UNL1        0.0004
     36 C          44.4117   12.4234  -18.5087 C.3     1  UNL1        0.0047
     37 O          45.1102   11.9418  -23.9993 O.3     1  UNL1       -0.3313
     38 C          44.2978   12.9860  -24.4899 C.3     1  UNL1        0.1764
@<TRIPOS>BOND
     1    35    36    1
     2    36    34    1
     3    34    24    1
     4    24    25   ar
     5    25    26   ar
     6    26    30    1
     7    30    31    1
     8    30    32    2
     9    30    33    2
    10    26    27   ar
    11    27    28   ar
    12    28    29   ar
    13    29     1    1
    14     1     2    2
    15     1     3   am
    16     3     4    1
    17     4     5    1
    18     5     6    1
    19     6     7    1
    20     7     8   ar
    21     8     9   ar
    22     9    10   ar
    23    10    14    1
    24    14    15   ar
    25    15    16   ar
    26    16    17   ar
    27    17    18   ar
    28    18    19   ar
    29    19    20   ar
    30    20    21   ar
    31    21    22   ar
    32    10    11   ar
    33    11    12   ar
    34    12    13    1
    35    13    37    1
    36    37    38    1
    37    29    24   ar
    38    13     3    1
    39    12     7   ar
    40    22    14   ar
    41    21    17   ar
    42    20    23    1
@<TRIPOS>MOLECULE
*****
 38 42 0 0 0
SMALL
GASTEIGER

@<TRIPOS>ATOM
      1 C          47.5032   13.1329  -21.4707 C.2     1  UNL1        0.2507
      2 O          47.5275   14.3391  -21.8361 O.2     1  UNL1       -0.2698
      3 N          47.0993   12.0959  -22.3971 N.am    1  UNL1       -0.2466
      4 C          47.2680   10.6764  -22.0634 C.3     1  UNL1        0.1434
      5 C          48.7083   10.2592  -22.3403 C.3     1  UNL1        0.2269
      6 O          49.2822   11.0420  -23.3864 O.3     1  UNL1       -0.4738
      7 C          48.7001   11.1741  -24.6518 C.ar    1  UNL1        0.1385
      8 C          49.4307   10.7095  -25.7495 C.ar    1  UNL1        0.0367
      9 C          48.9183   10.8072  -27.0417 C.ar    1  UNL1        0.0031
     10 C          47.6655   11.3946  -27.2661 C.ar    1  UNL1        0.0001
     11 C          46.9364   11.8836  -26.1691 C.ar    1  UNL1        0.0028
     12 C          47.4275   11.7762  -24.8528 C.ar    1  UNL1        0.0581
     13 C          46.6071   12.4337  -23.7457 C.3     1  UNL1        0.2216
     14 C          47.1253   11.5099  -28.6444 C.ar    1  UNL1        0.0015
     15 C          47.0744   10.3711  -29.4966 C.ar    1  UNL1        0.0016
     16 C          46.5650   10.4712  -30.8049 C.ar    1  UNL1        0.0206
     17 C          46.1157   11.7161  -31.2318 C.ar    1  UNL1        0.0985
     18 N          45.5974   12.0383  -32.4306 N.ar    1  UNL1       -0.2241
     19 C          45.3370   13.3660  -32.2998 C.ar    1  UNL1        0.1750
     20 N          45.6701   13.8652  -31.0852 N.ar    1  UNL1       -0.3349
     21 C          46.1592   12.8097  -30.4240 C.ar    1  UNL1        0.0757
     22 C          46.6540   12.7564  -29.1240 C.ar    1  UNL1        0.0185
     23 H          45.5674   14.8476  -30.7466 H       1  UNL1        0.1675
     24 C          49.2739   12.9653  -19.6720 C.ar    1  UNL1       -0.0165
     25 C          49.6180   12.6198  -18.3533 C.ar    1  UNL1        0.0142
     26 C          48.6474   12.1547  -17.4580 C.ar    1  UNL1        0.1054
     27 C          47.3250   12.0037  -17.8870 C.ar    1  UNL1        0.0185
     28 C          46.9704   12.3279  -19.1969 C.ar    1  UNL1        0.0055
     29 C          47.9301   12.8171  -20.0943 C.ar    1  UNL1        0.0498
     30 S          49.1016   11.7168  -15.8146 S.O2    1  UNL1        0.0104
     31 C          49.3266   13.1946  -14.8520 C.3     1  UNL1        0.1816
     32 O          48.0221   10.8724  -15.1975 O.2     1  UNL1       -0.1686
     33 O          50.3811   10.9281  -15.8300 O.2     1  UNL1       -0.1686
     34 C          50.3679   13.4088  -20.6171 C.3     1  UNL1        0.0265
     35 C          52.8321   13.9066  -20.8373 C.3     1  UNL1        0.0004
     36 C          51.7095   13.5083  -19.8836 C.3     1  UNL1        0.0047
     37 O          45.2584   12.0107  -23.8614 O.3     1  UNL1       -0.3313
     38 C          44.4753   13.0228  -24.4560 C.3     1  UNL1        0.1764
@<TRIPOS>BOND
     1    35    36    1
     2    36    34    1
     3    34    24    1
     4    24    25   ar
     5    25    26   ar
     6    26    30    1
     7    30    31    1
     8    30    32    2
     9    30    33    2
    10    26    27   ar
    11    27    28   ar
    12    28    29   ar
    13    29     1    1
    14     1     2    2
    15     1     3   am
    16     3     4    1
    17     4     5    1
    18     5     6    1
    19     6     7    1
    20     7     8   ar
    21     8     9   ar
    22     9    10   ar
    23    10    14    1
    24    14    15   ar
    25    15    16   ar
    26    16    17   ar
    27    17    18   ar
    28    18    19   ar
    29    19    20   ar
    30    20    21   ar
    31    21    22   ar
    32    10    11   ar
    33    11    12   ar
    34    12    13    1
    35    13    37    1
    36    37    38    1
    37    29    24   ar
    38    13     3    1
    39    12     7   ar
    40    22    14   ar
    41    21    17   ar
    42    20    23    1
