@<TRIPOS>MOLECULE
*****
 52 58 0 0 0
SMALL
GASTEIGER

@<TRIPOS>ATOM
      1 C          58.5930   83.9693   10.3990 C.ar    1  UNL1        0.0487
      2 C          58.3776   82.6452    9.9908 C.ar    1  UNL1        0.0176
      3 C          58.1224   81.6483   10.9349 C.ar    1  UNL1        0.0382
      4 C          58.0842   81.9485   12.3002 C.ar    1  UNL1        0.1388
      5 C          58.2785   83.2825   12.7110 C.ar    1  UNL1        0.0382
      6 C          58.5332   84.2813   11.7667 C.ar    1  UNL1        0.0176
      7 N          59.0373   87.1457    7.6717 N.pl3   1  UNL1       -0.3034
      8 C          59.3687   87.3801    9.0814 C.3     1  UNL1        0.1123
      9 C          59.8113   86.0743    9.7429 C.3     1  UNL1        0.1129
     10 N          58.8709   84.9913    9.4232 N.pl3   1  UNL1       -0.2968
     11 C          58.5012   84.7683    8.0175 C.3     1  UNL1        0.1503
     12 BR         60.0005   83.9884    7.0555 Br      1  UNL1       -0.0577
     13 C          58.0700   86.0853    7.3669 C.3     1  UNL1        0.1225
     14 C          60.0099   90.0404    4.6967 C.ar    1  UNL1        0.0699
     15 C          58.6851   89.8843    5.1382 C.ar    1  UNL1        0.0190
     16 C          58.3686   88.9339    6.1125 C.ar    1  UNL1        0.0160
     17 C          59.3707   88.1252    6.6694 C.ar    1  UNL1        0.0481
     18 C          60.6965   88.2836    6.2347 C.ar    1  UNL1        0.0160
     19 C          61.0136   89.2337    5.2599 C.ar    1  UNL1        0.0190
     20 N          61.3625   92.2111    2.1235 N.ar    1  UNL1       -0.2024
     21 N          60.1629   92.7516    2.2826 N.ar    1  UNL1       -0.1442
     22 C          59.5442   92.0282    3.2412 C.ar    1  UNL1        0.2073
     23 N          60.3307   91.0254    3.6952 N.ar    1  UNL1       -0.2398
     24 C          61.4543   91.1649    2.9639 C.ar    1  UNL1        0.3522
     25 O          62.4475   90.3909    3.0244 O.2     1  UNL1       -0.2444
     26 C          62.3451   92.6431    1.1245 C.3     1  UNL1        0.1099
     27 C          62.3492   91.6623   -0.0555 C.3     1  UNL1        0.0265
     28 C          64.8506   92.1607    0.9391 C.3     1  UNL1        0.0021
     29 C          63.7309   92.7614    1.7891 C.3     1  UNL1        0.0245
     30 O          57.8569   80.8922   13.1993 O.3     1  UNL1       -0.4727
     31 C          58.8019   79.8849   13.5658 C.3     1  UNL1        0.2374
     32 C          60.1969   80.1514   12.9832 C.3     1  UNL1        0.1909
     33 C          61.2448   79.1458   13.3547 C.3     1  UNL1        0.1783
     34 O          62.4514   79.8406   13.3116 O.3     1  UNL1       -0.3266
     35 C          62.1165   81.2162   13.3059 C.3     1  UNL1        0.2314
     36 O          60.7119   81.3668   13.4227 O.3     1  UNL1       -0.3254
     37 C          62.6141   81.8613   12.0070 C.ar    1  UNL1        0.0410
     38 C          61.7074   82.5728   11.1901 C.ar    1  UNL1        0.0022
     39 C          62.1323   83.1895   10.0121 C.ar    1  UNL1        0.0113
     40 C          63.4719   83.1281    9.6325 C.ar    1  UNL1        0.0585
     41 CL         64.0020   83.9069    8.1528 Cl      1  UNL1       -0.0822
     42 C          64.3932   82.4595   10.4392 C.ar    1  UNL1        0.0226
     43 C          63.9835   81.8361   11.6247 C.ar    1  UNL1        0.0591
     44 CL         65.2382   81.0701   12.5980 Cl      1  UNL1       -0.0824
     45 C          62.7959   81.9190   14.4970 C.3     1  UNL1        0.1893
     46 N          62.6385   83.3728   14.4319 N.ar    1  UNL1       -0.2313
     47 N          61.4757   83.9747   14.2598 N.ar    1  UNL1       -0.1532
     48 C          61.7582   85.2881   14.1577 C.ar    1  UNL1        0.1604
     49 C          60.7393   86.3229   13.8207 C.3     1  UNL1        0.0756
     50 N          63.0817   85.5478   14.2338 N.ar    1  UNL1       -0.2146
     51 C          63.6009   84.3185   14.4224 C.ar    1  UNL1        0.1381
     52 C          65.0731   84.0535   14.4680 C.3     1  UNL1        0.0734
@<TRIPOS>BOND
     1    28    29    1
     2    29    26    1
     3    26    27    1
     4    26    20    1
     5    20    21   ar
     6    21    22   ar
     7    22    23   ar
     8    23    14    1
     9    14    15   ar
    10    15    16   ar
    11    16    17   ar
    12    17     7    1
    13     7     8    1
    14     8     9    1
    15     9    10    1
    16    10     1    1
    17     1     2   ar
    18     2     3   ar
    19     3     4   ar
    20     4    30    1
    21    30    31    1
    22    31    32    1
    23    32    33    1
    24    33    34    1
    25    34    35    1
    26    35    45    1
    27    45    46    1
    28    46    47   ar
    29    47    48   ar
    30    48    49    1
    31    48    50   ar
    32    50    51   ar
    33    51    52    1
    34    35    37    1
    35    37    38   ar
    36    38    39   ar
    37    39    40   ar
    38    40    41    1
    39    40    42   ar
    40    42    43   ar
    41    43    44    1
    42    35    36    1
    43     4     5   ar
    44     5     6   ar
    45    10    11    1
    46    11    12    1
    47    11    13    1
    48    17    18   ar
    49    18    19   ar
    50    23    24   ar
    51    24    25    2
    52    24    20   ar
    53    19    14   ar
    54    13     7    1
    55     6     1   ar
    56    36    32    1
    57    51    46   ar
    58    43    37   ar
@<TRIPOS>MOLECULE
*****
 52 58 0 0 0
SMALL
GASTEIGER

@<TRIPOS>ATOM
      1 C          60.0691   85.4176   10.6908 C.ar    1  UNL1        0.0487
      2 C          61.2276   85.2715   11.4673 C.ar    1  UNL1        0.0176
      3 C          61.2174   84.4605   12.6041 C.ar    1  UNL1        0.0382
      4 C          60.0550   83.7873   12.9928 C.ar    1  UNL1        0.1388
      5 C          58.8958   83.9154   12.2016 C.ar    1  UNL1        0.0382
      6 C          58.9051   84.7262   11.0629 C.ar    1  UNL1        0.0176
      7 N          59.7271   88.0651    7.4351 N.pl3   1  UNL1       -0.3034
      8 C          60.1915   88.5930    8.7226 C.3     1  UNL1        0.1123
      9 C          60.8904   87.4926    9.5222 C.3     1  UNL1        0.1129
     10 N          60.0797   86.2670    9.5279 N.pl3   1  UNL1       -0.2968
     11 C          59.5766   85.7465    8.2479 C.3     1  UNL1        0.1503
     12 BR         61.0422   84.9826    7.2232 Br      1  UNL1       -0.0577
     13 C          58.8886   86.8610    7.4554 C.3     1  UNL1        0.1225
     14 C          59.9438   90.4653    3.9183 C.ar    1  UNL1        0.0699
     15 C          61.0480   89.7019    4.3337 C.ar    1  UNL1        0.0190
     16 C          60.9749   88.9169    5.4875 C.ar    1  UNL1        0.0160
     17 C          59.7950   88.8745    6.2454 C.ar    1  UNL1        0.0481
     18 C          58.6879   89.6312    5.8289 C.ar    1  UNL1        0.0160
     19 C          58.7605   90.4169    4.6753 C.ar    1  UNL1        0.0190
     20 N          60.7597   92.5224    1.0433 N.ar    1  UNL1       -0.2024
     21 N          59.4618   92.3420    0.8447 N.ar    1  UNL1       -0.1442
     22 C          59.0219   91.5832    1.8722 C.ar    1  UNL1        0.2073
     23 N          60.0238   91.2690    2.7251 N.ar    1  UNL1       -0.2398
     24 C          61.0967   91.8639    2.1668 C.ar    1  UNL1        0.3522
     25 O          62.2733   91.7797    2.6117 O.2     1  UNL1       -0.2444
     26 C          61.6527   93.2328    0.1225 C.3     1  UNL1        0.1099
     27 C          60.8346   93.8478   -1.0207 C.3     1  UNL1        0.0265
     28 C          64.1546   92.7608   -0.1264 C.3     1  UNL1        0.0021
     29 C          62.7341   92.2618   -0.3912 C.3     1  UNL1        0.0245
     30 O          60.1037   83.0154   14.1664 O.3     1  UNL1       -0.4727
     31 C          60.5789   81.6714   14.2670 C.3     1  UNL1        0.2374
     32 C          60.3492   80.8714   12.9771 C.3     1  UNL1        0.1909
     33 C          60.7463   79.4274   13.0442 C.3     1  UNL1        0.1783
     34 O          61.0724   79.0756   11.7365 O.3     1  UNL1       -0.3266
     35 C          61.2378   80.2906   11.0288 C.3     1  UNL1        0.2314
     36 O          61.0894   81.3852   11.9170 O.3     1  UNL1       -0.3254
     37 C          60.2005   80.3753    9.9028 C.ar    1  UNL1        0.0410
     38 C          60.5609   80.9532    8.6651 C.ar    1  UNL1        0.0022
     39 C          59.6469   81.0268    7.6127 C.ar    1  UNL1        0.0113
     40 C          58.3616   80.5092    7.7629 C.ar    1  UNL1        0.0585
     41 CL         57.2172   80.6014    6.4367 Cl      1  UNL1       -0.0822
     42 C          57.9919   79.9039    8.9643 C.ar    1  UNL1        0.0226
     43 C          58.8973   79.8210   10.0299 C.ar    1  UNL1        0.0591
     44 CL         58.3468   78.9846   11.4810 Cl      1  UNL1       -0.0824
     45 C          62.6464   80.3389   10.4060 C.3     1  UNL1        0.1893
     46 N          63.5004   81.3252   11.0697 N.ar    1  UNL1       -0.2313
     47 N          63.8849   81.2288   12.3295 N.ar    1  UNL1       -0.1532
     48 C          64.5666   82.3616   12.5889 C.ar    1  UNL1        0.1604
     49 C          65.0664   82.7263   13.9452 C.3     1  UNL1        0.0756
     50 N          64.6097   83.2018   11.5320 N.ar    1  UNL1       -0.2146
     51 C          63.9414   82.5069   10.5904 C.ar    1  UNL1        0.1381
     52 C          63.6220   83.0644    9.2388 C.3     1  UNL1        0.0734
@<TRIPOS>BOND
     1    28    29    1
     2    29    26    1
     3    26    27    1
     4    26    20    1
     5    20    21   ar
     6    21    22   ar
     7    22    23   ar
     8    23    14    1
     9    14    15   ar
    10    15    16   ar
    11    16    17   ar
    12    17     7    1
    13     7     8    1
    14     8     9    1
    15     9    10    1
    16    10     1    1
    17     1     2   ar
    18     2     3   ar
    19     3     4   ar
    20     4    30    1
    21    30    31    1
    22    31    32    1
    23    32    33    1
    24    33    34    1
    25    34    35    1
    26    35    45    1
    27    45    46    1
    28    46    47   ar
    29    47    48   ar
    30    48    49    1
    31    48    50   ar
    32    50    51   ar
    33    51    52    1
    34    35    37    1
    35    37    38   ar
    36    38    39   ar
    37    39    40   ar
    38    40    41    1
    39    40    42   ar
    40    42    43   ar
    41    43    44    1
    42    35    36    1
    43     4     5   ar
    44     5     6   ar
    45    10    11    1
    46    11    12    1
    47    11    13    1
    48    17    18   ar
    49    18    19   ar
    50    23    24   ar
    51    24    25    2
    52    24    20   ar
    53    19    14   ar
    54    13     7    1
    55     6     1   ar
    56    36    32    1
    57    51    46   ar
    58    43    37   ar
@<TRIPOS>MOLECULE
*****
 52 58 0 0 0
SMALL
GASTEIGER

@<TRIPOS>ATOM
      1 C          59.9414   85.6784   10.3965 C.ar    1  UNL1        0.0487
      2 C          61.0338   85.6190   11.2737 C.ar    1  UNL1        0.0176
      3 C          60.9872   84.8005   12.4042 C.ar    1  UNL1        0.0382
      4 C          59.8525   84.0333   12.6862 C.ar    1  UNL1        0.1388
      5 C          58.7623   84.0747   11.7942 C.ar    1  UNL1        0.0382
      6 C          58.8082   84.8931   10.6617 C.ar    1  UNL1        0.0176
      7 N          59.7204   88.3740    7.1699 N.pl3   1  UNL1       -0.3034
      8 C          60.2524   88.8542    8.4499 C.3     1  UNL1        0.1123
      9 C          60.8865   87.6979    9.2242 C.3     1  UNL1        0.1129
     10 N          59.9877   86.5354    9.2401 N.pl3   1  UNL1       -0.2968
     11 C          59.4178   86.0654    7.9686 C.3     1  UNL1        0.1503
     12 BR         60.7986   85.2050    6.9033 Br      1  UNL1       -0.0577
     13 C          58.7958   87.2350    7.2012 C.3     1  UNL1        0.1225
     14 C          60.0001   90.7758    3.6587 C.ar    1  UNL1        0.0699
     15 C          58.8041   90.7188    4.3942 C.ar    1  UNL1        0.0190
     16 C          58.7145   89.9298    5.5440 C.ar    1  UNL1        0.0160
     17 C          59.8202   89.1872    5.9851 C.ar    1  UNL1        0.0481
     18 C          61.0186   89.2475    5.2557 C.ar    1  UNL1        0.0160
     19 C          61.1087   90.0361    4.1052 C.ar    1  UNL1        0.0190
     20 N          60.2011   92.2931    0.3693 N.ar    1  UNL1       -0.2024
     21 N          60.1850   93.3783    1.1300 N.ar    1  UNL1       -0.1442
     22 C          60.1198   92.9456    2.4081 C.ar    1  UNL1        0.2073
     23 N          60.0877   91.5949    2.4765 N.ar    1  UNL1       -0.2398
     24 C          60.1278   91.2235    1.1815 C.ar    1  UNL1        0.3522
     25 O          60.0607   90.0312    0.7772 O.2     1  UNL1       -0.2444
     26 C          60.1950   92.3033   -1.0970 C.3     1  UNL1        0.1099
     27 C          61.2965   93.2387   -1.6127 C.3     1  UNL1        0.0265
     28 C          57.7946   91.5622   -1.5796 C.3     1  UNL1        0.0021
     29 C          58.7973   92.7159   -1.5991 C.3     1  UNL1        0.0245
     30 O          59.8580   83.2581   13.8586 O.3     1  UNL1       -0.4727
     31 C          60.4266   81.9546   13.9994 C.3     1  UNL1        0.2374
     32 C          60.2084   81.0833   12.7545 C.3     1  UNL1        0.1909
     33 C          60.5799   79.6398   12.9145 C.3     1  UNL1        0.1783
     34 O          60.9251   79.2062   11.6366 O.3     1  UNL1       -0.3266
     35 C          61.1244   80.3745   10.8621 C.3     1  UNL1        0.2314
     36 O          60.9773   81.5220   11.6812 O.3     1  UNL1       -0.3254
     37 C          60.1105   80.4086    9.7123 C.ar    1  UNL1        0.0410
     38 C          60.4899   80.9510    8.4643 C.ar    1  UNL1        0.0022
     39 C          59.5978   80.9780    7.3910 C.ar    1  UNL1        0.0113
     40 C          58.3164   80.4481    7.5310 C.ar    1  UNL1        0.0585
     41 CL         57.1996   80.4817    6.1787 Cl      1  UNL1       -0.0822
     42 C          57.9289   79.8770    8.7435 C.ar    1  UNL1        0.0226
     43 C          58.8121   79.8411    9.8300 C.ar    1  UNL1        0.0591
     44 CL         58.2415   79.0446   11.2958 Cl      1  UNL1       -0.0824
     45 C          62.5453   80.3639   10.2661 C.3     1  UNL1        0.1893
     46 N          63.4161   81.3421   10.9200 N.ar    1  UNL1       -0.2313
     47 N          63.8536   81.2170   12.1598 N.ar    1  UNL1       -0.1532
     48 C          64.5340   82.3503   12.4210 C.ar    1  UNL1        0.1604
     49 C          65.0859   82.6850   13.7648 C.3     1  UNL1        0.0756
     50 N          64.5246   83.2183   11.3860 N.ar    1  UNL1       -0.2146
     51 C          63.8248   82.5408   10.4545 C.ar    1  UNL1        0.1381
     52 C          63.4438   83.1299    9.1326 C.3     1  UNL1        0.0734
@<TRIPOS>BOND
     1    28    29    1
     2    29    26    1
     3    26    27    1
     4    26    20    1
     5    20    21   ar
     6    21    22   ar
     7    22    23   ar
     8    23    14    1
     9    14    15   ar
    10    15    16   ar
    11    16    17   ar
    12    17     7    1
    13     7     8    1
    14     8     9    1
    15     9    10    1
    16    10     1    1
    17     1     2   ar
    18     2     3   ar
    19     3     4   ar
    20     4    30    1
    21    30    31    1
    22    31    32    1
    23    32    33    1
    24    33    34    1
    25    34    35    1
    26    35    45    1
    27    45    46    1
    28    46    47   ar
    29    47    48   ar
    30    48    49    1
    31    48    50   ar
    32    50    51   ar
    33    51    52    1
    34    35    37    1
    35    37    38   ar
    36    38    39   ar
    37    39    40   ar
    38    40    41    1
    39    40    42   ar
    40    42    43   ar
    41    43    44    1
    42    35    36    1
    43     4     5   ar
    44     5     6   ar
    45    10    11    1
    46    11    12    1
    47    11    13    1
    48    17    18   ar
    49    18    19   ar
    50    23    24   ar
    51    24    25    2
    52    24    20   ar
    53    19    14   ar
    54    13     7    1
    55     6     1   ar
    56    36    32    1
    57    51    46   ar
    58    43    37   ar
@<TRIPOS>MOLECULE
*****
 52 58 0 0 0
SMALL
GASTEIGER

@<TRIPOS>ATOM
      1 C          60.6683   86.6522   10.9636 C.ar    1  UNL1        0.0487
      2 C          61.9201   86.4317   11.5559 C.ar    1  UNL1        0.0176
      3 C          62.0192   85.7144   12.7499 C.ar    1  UNL1        0.0382
      4 C          60.8766   85.2107   13.3793 C.ar    1  UNL1        0.1388
      5 C          59.6199   85.4121   12.7742 C.ar    1  UNL1        0.0382
      6 C          59.5195   86.1293   11.5785 C.ar    1  UNL1        0.0176
      7 N          60.2428   88.4895    7.1994 N.pl3   1  UNL1       -0.3034
      8 C          59.0393   88.2517    8.0039 C.3     1  UNL1        0.1123
      9 C          59.3921   88.2495    9.4919 C.3     1  UNL1        0.1129
     10 N          60.5692   87.4055    9.7403 N.pl3   1  UNL1       -0.2968
     11 C          61.7704   87.6081    8.9165 C.3     1  UNL1        0.1503
     12 BR         62.6407   89.2740    9.4154 Br      1  UNL1       -0.0577
     13 C          61.4000   87.6175    7.4312 C.3     1  UNL1        0.1225
     14 C          60.0386   90.8803    3.6755 C.ar    1  UNL1        0.0699
     15 C          58.9203   90.7457    4.5156 C.ar    1  UNL1        0.0190
     16 C          58.9894   89.9604    5.6694 C.ar    1  UNL1        0.0160
     17 C          60.1791   89.2993    6.0098 C.ar    1  UNL1        0.0481
     18 C          61.3001   89.4374    5.1755 C.ar    1  UNL1        0.0160
     19 C          61.2316   90.2222    4.0210 C.ar    1  UNL1        0.0190
     20 N          59.8061   92.3850    0.3824 N.ar    1  UNL1       -0.2024
     21 N          59.8496   93.4733    1.1374 N.ar    1  UNL1       -0.1442
     22 C          59.9483   93.0458    2.4151 C.ar    1  UNL1        0.2073
     23 N          59.9626   91.6952    2.4896 N.ar    1  UNL1       -0.2398
     24 C          59.8597   91.3181    1.1997 C.ar    1  UNL1        0.3522
     25 O          59.7788   90.1223    0.8086 O.2     1  UNL1       -0.2444
     26 C          59.6264   92.3872   -1.0729 C.3     1  UNL1        0.1099
     27 C          60.6452   93.3353   -1.7189 C.3     1  UNL1        0.0265
     28 C          57.2189   91.5830   -1.3920 C.3     1  UNL1        0.0021
     29 C          58.1731   92.7773   -1.4074 C.3     1  UNL1        0.0245
     30 O          61.0437   84.5279   14.5965 O.3     1  UNL1       -0.4727
     31 C          62.0789   83.5896   14.8965 C.3     1  UNL1        0.2374
     32 C          61.9834   82.3191   14.0402 C.3     1  UNL1        0.1909
     33 C          63.2643   81.5549   13.8897 C.3     1  UNL1        0.1783
     34 O          63.1573   80.8971   12.6666 O.3     1  UNL1       -0.3266
     35 C          62.0926   81.5212   11.9728 C.3     1  UNL1        0.2314
     36 O          61.5975   82.6087   12.7353 O.3     1  UNL1       -0.3254
     37 C          60.9775   80.5006   11.7163 C.ar    1  UNL1        0.0410
     38 C          59.7406   80.6366   12.3851 C.ar    1  UNL1        0.0022
     39 C          58.6978   79.7369   12.1582 C.ar    1  UNL1        0.0113
     40 C          58.8568   78.6949   11.2465 C.ar    1  UNL1        0.0585
     41 CL         57.5426   77.5682   10.9625 Cl      1  UNL1       -0.0822
     42 C          60.0573   78.5586   10.5488 C.ar    1  UNL1        0.0226
     43 C          61.1132   79.4534   10.7641 C.ar    1  UNL1        0.0591
     44 CL         62.5635   79.2253    9.7878 Cl      1  UNL1       -0.0824
     45 C          62.5984   82.0500   10.6167 C.3     1  UNL1        0.1893
     46 N          61.5803   82.8469    9.9303 N.ar    1  UNL1       -0.2313
     47 N          60.2826   82.7005   10.1271 N.ar    1  UNL1       -0.1532
     48 C          59.6863   83.5341    9.2526 C.ar    1  UNL1        0.1604
     49 C          58.2111   83.5865    9.0442 C.3     1  UNL1        0.0756
     50 N          60.5691   84.1983    8.4753 N.ar    1  UNL1       -0.2146
     51 C          61.7511   83.7507    8.9431 C.ar    1  UNL1        0.1381
     52 C          63.0642   84.1204    8.3278 C.3     1  UNL1        0.0734
@<TRIPOS>BOND
     1    28    29    1
     2    29    26    1
     3    26    27    1
     4    26    20    1
     5    20    21   ar
     6    21    22   ar
     7    22    23   ar
     8    23    14    1
     9    14    15   ar
    10    15    16   ar
    11    16    17   ar
    12    17     7    1
    13     7     8    1
    14     8     9    1
    15     9    10    1
    16    10     1    1
    17     1     2   ar
    18     2     3   ar
    19     3     4   ar
    20     4    30    1
    21    30    31    1
    22    31    32    1
    23    32    33    1
    24    33    34    1
    25    34    35    1
    26    35    45    1
    27    45    46    1
    28    46    47   ar
    29    47    48   ar
    30    48    49    1
    31    48    50   ar
    32    50    51   ar
    33    51    52    1
    34    35    37    1
    35    37    38   ar
    36    38    39   ar
    37    39    40   ar
    38    40    41    1
    39    40    42   ar
    40    42    43   ar
    41    43    44    1
    42    35    36    1
    43     4     5   ar
    44     5     6   ar
    45    10    11    1
    46    11    12    1
    47    11    13    1
    48    17    18   ar
    49    18    19   ar
    50    23    24   ar
    51    24    25    2
    52    24    20   ar
    53    19    14   ar
    54    13     7    1
    55     6     1   ar
    56    36    32    1
    57    51    46   ar
    58    43    37   ar
@<TRIPOS>MOLECULE
*****
 52 58 0 0 0
SMALL
GASTEIGER

@<TRIPOS>ATOM
      1 C          60.6511   86.2894   11.0039 C.ar    1  UNL1        0.0487
      2 C          61.9021   85.8944   11.4991 C.ar    1  UNL1        0.0176
      3 C          61.9966   85.2110   12.7133 C.ar    1  UNL1        0.0382
      4 C          60.8513   84.9153   13.4592 C.ar    1  UNL1        0.1388
      5 C          59.5913   85.2920   12.9526 C.ar    1  UNL1        0.0382
      6 C          59.4955   85.9753   11.7369 C.ar    1  UNL1        0.0176
      7 N          60.0209   88.5661    7.5188 N.pl3   1  UNL1       -0.3034
      8 C          60.5798   89.2323    8.7003 C.3     1  UNL1        0.1123
      9 C          61.3528   88.2275    9.5556 C.3     1  UNL1        0.1129
     10 N          60.5595   87.0073    9.7588 N.pl3   1  UNL1       -0.2968
     11 C          59.9626   86.3492    8.5870 C.3     1  UNL1        0.1503
     12 BR         61.3512   85.4829    7.5368 Br      1  UNL1       -0.0577
     13 C          59.2008   87.3689    7.7364 C.3     1  UNL1        0.1225
     14 C          59.8987   90.5581    3.7515 C.ar    1  UNL1        0.0699
     15 C          58.7458   90.4627    4.5491 C.ar    1  UNL1        0.0190
     16 C          58.7881   89.8082    5.7830 C.ar    1  UNL1        0.0160
     17 C          59.9848   89.2416    6.2470 C.ar    1  UNL1        0.0481
     18 C          61.1400   89.3411    5.4549 C.ar    1  UNL1        0.0160
     19 C          61.0982   89.9952    4.2204 C.ar    1  UNL1        0.0190
     20 N          60.3864   92.3831    0.6541 N.ar    1  UNL1       -0.2024
     21 N          59.1108   92.0452    0.5314 N.ar    1  UNL1       -0.1442
     22 C          58.7918   91.3537    1.6472 C.ar    1  UNL1        0.2073
     23 N          59.8498   91.2384    2.4823 N.ar    1  UNL1       -0.2398
     24 C          60.8311   91.8840    1.8213 C.ar    1  UNL1        0.3522
     25 O          62.0237   91.9727    2.2203 O.2     1  UNL1       -0.2444
     26 C          61.1643   93.0863   -0.3709 C.3     1  UNL1        0.1099
     27 C          60.2174   93.8479   -1.3077 C.3     1  UNL1        0.0265
     28 C          63.5397   92.3191   -0.9305 C.3     1  UNL1        0.0021
     29 C          62.0441   92.0729   -1.1291 C.3     1  UNL1        0.0245
     30 O          61.0200   84.2562   14.6891 O.3     1  UNL1       -0.4727
     31 C          61.9763   83.2312   14.9670 C.3     1  UNL1        0.2374
     32 C          61.8570   82.0426   14.0029 C.3     1  UNL1        0.1909
     33 C          63.1606   81.4682   13.5360 C.3     1  UNL1        0.1783
     34 O          62.8914   80.9165   12.2856 O.3     1  UNL1       -0.3266
     35 C          61.6501   81.4578   11.8727 C.3     1  UNL1        0.2314
     36 O          61.1956   82.3976   12.8315 O.3     1  UNL1       -0.3254
     37 C          60.6258   80.3288   11.7080 C.ar    1  UNL1        0.0410
     38 C          61.0547   79.0574   11.2663 C.ar    1  UNL1        0.0022
     39 C          60.1514   78.0024   11.1260 C.ar    1  UNL1        0.0113
     40 C          58.8062   78.1848   11.4411 C.ar    1  UNL1        0.0585
     41 CL         57.6751   76.8556   11.2659 Cl      1  UNL1       -0.0822
     42 C          58.3636   79.4218   11.9108 C.ar    1  UNL1        0.0226
     43 C          59.2571   80.4904   12.0582 C.ar    1  UNL1        0.0591
     44 CL         58.6046   81.9911   12.7143 Cl      1  UNL1       -0.0824
     45 C          61.8215   82.1694   10.5167 C.3     1  UNL1        0.1893
     46 N          60.5456   82.3148    9.8142 N.ar    1  UNL1       -0.2313
     47 N          59.6122   83.1803   10.1664 N.ar    1  UNL1       -0.1532
     48 C          58.5686   82.9421    9.3483 C.ar    1  UNL1        0.1604
     49 C          57.2441   83.6111    9.4914 C.3     1  UNL1        0.0756
     50 N          58.7959   81.9233    8.4908 N.ar    1  UNL1       -0.2146
     51 C          60.0568   81.5652    8.8044 C.ar    1  UNL1        0.1381
     52 C          60.7467   80.3879    8.1899 C.3     1  UNL1        0.0734
@<TRIPOS>BOND
     1    28    29    1
     2    29    26    1
     3    26    27    1
     4    26    20    1
     5    20    21   ar
     6    21    22   ar
     7    22    23   ar
     8    23    14    1
     9    14    15   ar
    10    15    16   ar
    11    16    17   ar
    12    17     7    1
    13     7     8    1
    14     8     9    1
    15     9    10    1
    16    10     1    1
    17     1     2   ar
    18     2     3   ar
    19     3     4   ar
    20     4    30    1
    21    30    31    1
    22    31    32    1
    23    32    33    1
    24    33    34    1
    25    34    35    1
    26    35    45    1
    27    45    46    1
    28    46    47   ar
    29    47    48   ar
    30    48    49    1
    31    48    50   ar
    32    50    51   ar
    33    51    52    1
    34    35    37    1
    35    37    38   ar
    36    38    39   ar
    37    39    40   ar
    38    40    41    1
    39    40    42   ar
    40    42    43   ar
    41    43    44    1
    42    35    36    1
    43     4     5   ar
    44     5     6   ar
    45    10    11    1
    46    11    12    1
    47    11    13    1
    48    17    18   ar
    49    18    19   ar
    50    23    24   ar
    51    24    25    2
    52    24    20   ar
    53    19    14   ar
    54    13     7    1
    55     6     1   ar
    56    36    32    1
    57    51    46   ar
    58    43    37   ar
@<TRIPOS>MOLECULE
*****
 52 58 0 0 0
SMALL
GASTEIGER

@<TRIPOS>ATOM
      1 C          60.6611   86.4961   10.8941 C.ar    1  UNL1        0.0487
      2 C          61.9178   86.1815   11.4309 C.ar    1  UNL1        0.0176
      3 C          62.0159   85.5251   12.6596 C.ar    1  UNL1        0.0382
      4 C          60.8683   85.1769   13.3788 C.ar    1  UNL1        0.1388
      5 C          59.6041   85.4724   12.8307 C.ar    1  UNL1        0.0382
      6 C          59.5046   86.1287   11.6004 C.ar    1  UNL1        0.0176
      7 N          60.0382   88.7228    7.3756 N.pl3   1  UNL1       -0.3034
      8 C          60.6972   89.3762    8.5118 C.3     1  UNL1        0.1123
      9 C          61.4339   88.3396    9.3611 C.3     1  UNL1        0.1129
     10 N          60.5647   87.1866    9.6340 N.pl3   1  UNL1       -0.2968
     11 C          59.8688   86.5443    8.5090 C.3     1  UNL1        0.1503
     12 BR         61.1417   85.5516    7.4245 Br      1  UNL1       -0.0577
     13 C          59.1446   87.5950    7.6634 C.3     1  UNL1        0.1225
     14 C          59.9195   90.6328    3.5660 C.ar    1  UNL1        0.0699
     15 C          61.0760   89.9590    3.9937 C.ar    1  UNL1        0.0190
     16 C          61.1129   89.3348    5.2434 C.ar    1  UNL1        0.0160
     17 C          59.9927   89.3662    6.0876 C.ar    1  UNL1        0.0481
     18 C          58.8335   90.0333    5.6599 C.ar    1  UNL1        0.0160
     19 C          58.7961   90.6583    4.4103 C.ar    1  UNL1        0.0190
     20 N          60.4226   92.4184    0.4481 N.ar    1  UNL1       -0.2024
     21 N          59.2014   91.9416    0.2534 N.ar    1  UNL1       -0.1442
     22 C          58.8816   91.2490    1.3684 C.ar    1  UNL1        0.2073
     23 N          59.8861   91.2705    2.2743 N.ar    1  UNL1       -0.2398
     24 C          60.8364   92.0009    1.6579 C.ar    1  UNL1        0.3522
     25 O          61.9827   92.2283    2.1310 O.2     1  UNL1       -0.2444
     26 C          61.1901   93.1746   -0.5466 C.3     1  UNL1        0.1099
     27 C          60.2317   93.8457   -1.5391 C.3     1  UNL1        0.0265
     28 C          63.6412   92.6763   -1.0835 C.3     1  UNL1        0.0021
     29 C          62.1879   92.2311   -1.2467 C.3     1  UNL1        0.0245
     30 O          61.0388   84.5492   14.6248 O.3     1  UNL1       -0.4727
     31 C          61.8840   83.4278   14.8903 C.3     1  UNL1        0.2374
     32 C          61.7603   82.3352   13.8191 C.3     1  UNL1        0.1909
     33 C          63.0086   82.0706   13.0324 C.3     1  UNL1        0.1783
     34 O          62.5706   81.5980   11.7975 O.3     1  UNL1       -0.3266
     35 C          61.1958   81.9256   11.7129 C.3     1  UNL1        0.2314
     36 O          60.8090   82.6648   12.8588 O.3     1  UNL1       -0.3254
     37 C          60.3665   80.6404   11.6044 C.ar    1  UNL1        0.0410
     38 C          59.0916   80.5804   12.2098 C.ar    1  UNL1        0.0022
     39 C          58.3025   79.4331   12.1120 C.ar    1  UNL1        0.0113
     40 C          58.7569   78.3289   11.3933 C.ar    1  UNL1        0.0585
     41 CL         57.7608   76.8902   11.2707 Cl      1  UNL1       -0.0822
     42 C          59.9985   78.3755   10.7586 C.ar    1  UNL1        0.0226
     43 C          60.8022   79.5193   10.8461 C.ar    1  UNL1        0.0591
     44 CL         62.3254   79.4937    9.9585 Cl      1  UNL1       -0.0824
     45 C          60.9445   82.7818   10.4567 C.3     1  UNL1        0.1893
     46 N          59.9182   82.1935    9.5945 N.ar    1  UNL1       -0.2313
     47 N          60.1851   81.3615    8.6042 N.ar    1  UNL1       -0.1532
     48 C          59.0044   81.1260    7.9994 C.ar    1  UNL1        0.1604
     49 C          58.8697   80.3385    6.7408 C.3     1  UNL1        0.0756
     50 N          57.9822   81.8080    8.5604 N.ar    1  UNL1       -0.2146
     51 C          58.5948   82.4557    9.5711 C.ar    1  UNL1        0.1381
     52 C          57.8943   83.4447   10.4491 C.3     1  UNL1        0.0734
@<TRIPOS>BOND
     1    28    29    1
     2    29    26    1
     3    26    27    1
     4    26    20    1
     5    20    21   ar
     6    21    22   ar
     7    22    23   ar
     8    23    14    1
     9    14    15   ar
    10    15    16   ar
    11    16    17   ar
    12    17     7    1
    13     7     8    1
    14     8     9    1
    15     9    10    1
    16    10     1    1
    17     1     2   ar
    18     2     3   ar
    19     3     4   ar
    20     4    30    1
    21    30    31    1
    22    31    32    1
    23    32    33    1
    24    33    34    1
    25    34    35    1
    26    35    45    1
    27    45    46    1
    28    46    47   ar
    29    47    48   ar
    30    48    49    1
    31    48    50   ar
    32    50    51   ar
    33    51    52    1
    34    35    37    1
    35    37    38   ar
    36    38    39   ar
    37    39    40   ar
    38    40    41    1
    39    40    42   ar
    40    42    43   ar
    41    43    44    1
    42    35    36    1
    43     4     5   ar
    44     5     6   ar
    45    10    11    1
    46    11    12    1
    47    11    13    1
    48    17    18   ar
    49    18    19   ar
    50    23    24   ar
    51    24    25    2
    52    24    20   ar
    53    19    14   ar
    54    13     7    1
    55     6     1   ar
    56    36    32    1
    57    51    46   ar
    58    43    37   ar
@<TRIPOS>MOLECULE
*****
 52 58 0 0 0
SMALL
GASTEIGER

@<TRIPOS>ATOM
      1 C          60.4709   85.9017   10.2883 C.ar    1  UNL1        0.0487
      2 C          59.2868   85.4965   10.9207 C.ar    1  UNL1        0.0176
      3 C          59.3348   84.6715   12.0465 C.ar    1  UNL1        0.0382
      4 C          60.5588   84.2295   12.5583 C.ar    1  UNL1        0.1388
      5 C          61.7507   84.6535   11.9375 C.ar    1  UNL1        0.0382
      6 C          61.7039   85.4800   10.8110 C.ar    1  UNL1        0.0176
      7 N          59.9882   88.5642    7.0628 N.pl3   1  UNL1       -0.3034
      8 C          60.7044   89.0298    8.2554 C.3     1  UNL1        0.1123
      9 C          61.3678   87.8493    8.9661 C.3     1  UNL1        0.1129
     10 N          60.4163   86.7399    9.1186 N.pl3   1  UNL1       -0.2968
     11 C          59.6642   86.2868    7.9389 C.3     1  UNL1        0.1503
     12 BR         60.8491   85.3361    6.7249 Br      1  UNL1       -0.0577
     13 C          59.0144   87.4799    7.2333 C.3     1  UNL1        0.1225
     14 C          59.9812   90.9113    3.5037 C.ar    1  UNL1        0.0699
     15 C          61.1373   90.2200    3.9036 C.ar    1  UNL1        0.0190
     16 C          61.1375   89.4524    5.0713 C.ar    1  UNL1        0.0160
     17 C          59.9806   89.3553    5.8590 C.ar    1  UNL1        0.0481
     18 C          58.8218   90.0398    5.4582 C.ar    1  UNL1        0.0160
     19 C          58.8212   90.8082    4.2907 C.ar    1  UNL1        0.0190
     20 N          59.9504   92.3372    0.1678 N.ar    1  UNL1       -0.2024
     21 N          59.9902   93.4429    0.8975 N.ar    1  UNL1       -0.1442
     22 C          60.0152   93.0456    2.1884 C.ar    1  UNL1        0.2073
     23 N          59.9859   91.6974    2.2962 N.ar    1  UNL1       -0.2398
     24 C          59.9334   91.2905    1.0123 C.ar    1  UNL1        0.3522
     25 O          59.8358   90.0879    0.6468 O.2     1  UNL1       -0.2444
     26 C          59.8403   92.3073   -1.2941 C.3     1  UNL1        0.1099
     27 C          61.0468   93.0203   -1.9188 C.3     1  UNL1        0.0265
     28 C          57.2878   92.1425   -1.2512 C.3     1  UNL1        0.0021
     29 C          58.5025   92.9445   -1.7186 C.3     1  UNL1        0.0245
     30 O          60.5344   83.3731   13.6726 O.3     1  UNL1       -0.4727
     31 C          59.5897   82.3264   13.9055 C.3     1  UNL1        0.2374
     32 C          59.4718   81.3684   12.7118 C.3     1  UNL1        0.1909
     33 C          59.6326   79.9153   13.0434 C.3     1  UNL1        0.1783
     34 O          60.1253   79.3264   11.8811 O.3     1  UNL1       -0.3266
     35 C          60.5895   80.3866   11.0658 C.3     1  UNL1        0.2314
     36 O          60.4529   81.6165   11.7570 O.3     1  UNL1       -0.3254
     37 C          59.7880   80.4194    9.7590 C.ar    1  UNL1        0.0410
     38 C          58.6310   79.6192    9.6306 C.ar    1  UNL1        0.0022
     39 C          57.8673   79.6415    8.4624 C.ar    1  UNL1        0.0113
     40 C          58.2275   80.4752    7.4052 C.ar    1  UNL1        0.0585
     41 CL         57.2632   80.5021    5.9401 Cl      1  UNL1       -0.0822
     42 C          59.3471   81.2996    7.5203 C.ar    1  UNL1        0.0226
     43 C          60.1237   81.2899    8.6860 C.ar    1  UNL1        0.0591
     44 CL         61.4818   82.4125    8.7490 Cl      1  UNL1       -0.0824
     45 C          62.0763   80.1656   10.7266 C.3     1  UNL1        0.1893
     46 N          62.9567   80.7236   11.7543 N.ar    1  UNL1       -0.2313
     47 N          62.8496   80.4414   13.0400 N.ar    1  UNL1       -0.1532
     48 C          63.7622   81.2154   13.6590 C.ar    1  UNL1        0.1604
     49 C          63.8872   81.3109   15.1415 C.3     1  UNL1        0.0756
     50 N          64.4406   82.0123   12.8048 N.ar    1  UNL1       -0.2146
     51 C          63.9162   81.6619   11.6138 C.ar    1  UNL1        0.1381
     52 C          64.2729   82.3479   10.3324 C.3     1  UNL1        0.0734
@<TRIPOS>BOND
     1    28    29    1
     2    29    26    1
     3    26    27    1
     4    26    20    1
     5    20    21   ar
     6    21    22   ar
     7    22    23   ar
     8    23    14    1
     9    14    15   ar
    10    15    16   ar
    11    16    17   ar
    12    17     7    1
    13     7     8    1
    14     8     9    1
    15     9    10    1
    16    10     1    1
    17     1     2   ar
    18     2     3   ar
    19     3     4   ar
    20     4    30    1
    21    30    31    1
    22    31    32    1
    23    32    33    1
    24    33    34    1
    25    34    35    1
    26    35    45    1
    27    45    46    1
    28    46    47   ar
    29    47    48   ar
    30    48    49    1
    31    48    50   ar
    32    50    51   ar
    33    51    52    1
    34    35    37    1
    35    37    38   ar
    36    38    39   ar
    37    39    40   ar
    38    40    41    1
    39    40    42   ar
    40    42    43   ar
    41    43    44    1
    42    35    36    1
    43     4     5   ar
    44     5     6   ar
    45    10    11    1
    46    11    12    1
    47    11    13    1
    48    17    18   ar
    49    18    19   ar
    50    23    24   ar
    51    24    25    2
    52    24    20   ar
    53    19    14   ar
    54    13     7    1
    55     6     1   ar
    56    36    32    1
    57    51    46   ar
    58    43    37   ar
@<TRIPOS>MOLECULE
*****
 52 58 0 0 0
SMALL
GASTEIGER

@<TRIPOS>ATOM
      1 C          60.4859   86.2182   10.6768 C.ar    1  UNL1        0.0487
      2 C          61.7212   86.0361   11.3149 C.ar    1  UNL1        0.0176
      3 C          61.7959   85.3375   12.5218 C.ar    1  UNL1        0.0382
      4 C          60.6444   84.8147   13.1186 C.ar    1  UNL1        0.1388
      5 C          59.4050   84.9775   12.4679 C.ar    1  UNL1        0.0382
      6 C          59.3292   85.6759   11.2593 C.ar    1  UNL1        0.0176
      7 N          60.0099   88.6431    7.2682 N.pl3   1  UNL1       -0.3034
      8 C          60.9382   89.0809    8.3163 C.3     1  UNL1        0.1123
      9 C          61.4962   87.8701    9.0655 C.3     1  UNL1        0.1129
     10 N          60.4114   86.9523    9.4402 N.pl3   1  UNL1       -0.2968
     11 C          59.4515   86.5338    8.4077 C.3     1  UNL1        0.1503
     12 BR         60.3065   85.2996    7.1718 Br      1  UNL1       -0.0577
     13 C          58.9095   87.7552    7.6607 C.3     1  UNL1        0.1225
     14 C          59.9063   90.6533    3.5100 C.ar    1  UNL1        0.0699
     15 C          61.0761   90.0078    3.9451 C.ar    1  UNL1        0.0190
     16 C          61.1080   89.3506    5.1779 C.ar    1  UNL1        0.0160
     17 C          59.9696   89.3202    5.9974 C.ar    1  UNL1        0.0481
     18 C          58.7972   89.9589    5.5621 C.ar    1  UNL1        0.0160
     19 C          58.7649   90.6168    4.3293 C.ar    1  UNL1        0.0190
     20 N          60.4277   92.5089    0.4363 N.ar    1  UNL1       -0.2024
     21 N          59.1954   92.0635    0.2377 N.ar    1  UNL1       -0.1442
     22 C          58.8679   91.3488    1.3364 C.ar    1  UNL1        0.2073
     23 N          59.8783   91.3252    2.2356 N.ar    1  UNL1       -0.2398
     24 C          60.8402   92.0511    1.6319 C.ar    1  UNL1        0.3522
     25 O          61.9940   92.2416    2.1028 O.2     1  UNL1       -0.2444
     26 C          61.2049   93.2744   -0.5436 C.3     1  UNL1        0.1099
     27 C          60.2680   93.8423   -1.6178 C.3     1  UNL1        0.0265
     28 C          63.6722   93.0461   -1.1797 C.3     1  UNL1        0.0021
     29 C          62.3007   92.3717   -1.1438 C.3     1  UNL1        0.0245
     30 O          60.7853   84.1527   14.3505 O.3     1  UNL1       -0.4727
     31 C          61.7692   83.1649   14.6639 C.3     1  UNL1        0.2374
     32 C          61.4572   81.8046   14.0247 C.3     1  UNL1        0.1909
     33 C          62.3043   80.6654   14.5063 C.3     1  UNL1        0.1783
     34 O          62.3427   79.7630   13.4458 O.3     1  UNL1       -0.3266
     35 C          61.8962   80.4730   12.3052 C.3     1  UNL1        0.2314
     36 O          61.6576   81.8274   12.6481 O.3     1  UNL1       -0.3254
     37 C          60.6140   79.8271   11.7667 C.ar    1  UNL1        0.0410
     38 C          60.2708   78.5174   12.1698 C.ar    1  UNL1        0.0022
     39 C          59.1001   77.9085   11.7146 C.ar    1  UNL1        0.0113
     40 C          58.2365   78.5972   10.8648 C.ar    1  UNL1        0.0585
     41 CL         56.7650   77.8292   10.2975 Cl      1  UNL1       -0.0822
     42 C          58.5365   79.9039   10.4786 C.ar    1  UNL1        0.0226
     43 C          59.7067   80.5297   10.9270 C.ar    1  UNL1        0.0591
     44 CL         59.9595   82.2011   10.4262 Cl      1  UNL1       -0.0824
     45 C          62.9750   80.4175   11.2063 C.3     1  UNL1        0.1893
     46 N          63.2516   81.7425   10.6491 N.ar    1  UNL1       -0.2313
     47 N          62.7812   82.1594    9.4876 N.ar    1  UNL1       -0.1532
     48 C          63.3313   83.3729    9.2873 C.ar    1  UNL1        0.1604
     49 C          63.1717   84.1479    8.0239 C.3     1  UNL1        0.0756
     50 N          64.1685   83.7402   10.2818 N.ar    1  UNL1       -0.2146
     51 C          64.0791   82.6948   11.1277 C.ar    1  UNL1        0.1381
     52 C          64.9146   82.5721   12.3632 C.3     1  UNL1        0.0734
@<TRIPOS>BOND
     1    28    29    1
     2    29    26    1
     3    26    27    1
     4    26    20    1
     5    20    21   ar
     6    21    22   ar
     7    22    23   ar
     8    23    14    1
     9    14    15   ar
    10    15    16   ar
    11    16    17   ar
    12    17     7    1
    13     7     8    1
    14     8     9    1
    15     9    10    1
    16    10     1    1
    17     1     2   ar
    18     2     3   ar
    19     3     4   ar
    20     4    30    1
    21    30    31    1
    22    31    32    1
    23    32    33    1
    24    33    34    1
    25    34    35    1
    26    35    45    1
    27    45    46    1
    28    46    47   ar
    29    47    48   ar
    30    48    49    1
    31    48    50   ar
    32    50    51   ar
    33    51    52    1
    34    35    37    1
    35    37    38   ar
    36    38    39   ar
    37    39    40   ar
    38    40    41    1
    39    40    42   ar
    40    42    43   ar
    41    43    44    1
    42    35    36    1
    43     4     5   ar
    44     5     6   ar
    45    10    11    1
    46    11    12    1
    47    11    13    1
    48    17    18   ar
    49    18    19   ar
    50    23    24   ar
    51    24    25    2
    52    24    20   ar
    53    19    14   ar
    54    13     7    1
    55     6     1   ar
    56    36    32    1
    57    51    46   ar
    58    43    37   ar
