@<TRIPOS>MOLECULE
*****
 32 36 0 0 0
SMALL
GASTEIGER

@<TRIPOS>ATOM
      1 C          50.2219   12.6257  -21.1746 C.3     1  UNL1        0.0643
      2 C          50.8527   12.8825  -22.5887 C.3     1  UNL1        0.0217
      3 C          49.8029   13.2875  -23.6372 C.3     1  UNL1        0.0346
      4 C          48.9575   14.5406  -23.2399 C.3     1  UNL1        0.1252
      5 C          49.3034   15.0188  -21.8030 C.3     1  UNL1        0.0346
      6 C          49.3400   13.8827  -20.7639 C.3     1  UNL1        0.0217
      7 O          47.5751   14.1578  -23.3233 O.3     1  UNL1       -0.3527
      8 C          46.6568   15.2419  -23.4488 C.3     1  UNL1        0.1472
      9 C          46.8467   16.0060  -24.7674 C.3     1  UNL1        0.0597
     10 C          48.2868   16.3420  -24.8925 C.ar    1  UNL1       -0.0045
     11 C          48.9310   17.2733  -25.6742 C.ar    1  UNL1        0.0151
     12 C          48.4477   18.2194  -26.5755 C.ar    1  UNL1        0.0308
     13 C          49.3868   19.0419  -27.2254 C.ar    1  UNL1        0.1402
     14 F          48.9636   19.9774  -28.1104 F       1  UNL1       -0.2042
     15 C          50.7684   18.8989  -26.9609 C.ar    1  UNL1        0.0311
     16 C          51.2251   17.9322  -26.0453 C.ar    1  UNL1        0.0193
     17 C          50.2743   17.1308  -25.4158 C.ar    1  UNL1        0.0563
     18 N          50.4969   16.1497  -24.5188 N.ar    1  UNL1       -0.3549
     19 C          49.2703   15.6614  -24.2150 C.ar    1  UNL1        0.0544
     20 H          51.4184   15.8303  -24.1450 H       1  UNL1        0.1657
     21 C          49.4045   11.2943  -21.3030 C.ar    1  UNL1       -0.0109
     22 C          50.0445   10.0968  -21.7190 C.ar    1  UNL1       -0.0033
     23 C          49.3383    8.9123  -21.9119 C.ar    1  UNL1       -0.0003
     24 C          47.9738    8.8674  -21.6787 C.ar    1  UNL1       -0.0003
     25 C          47.3172    9.9921  -21.1962 C.ar    1  UNL1       -0.0021
     26 C          48.0119   11.1925  -20.9372 C.ar    1  UNL1        0.0042
     27 C          47.1947   12.3278  -20.3405 C.3     1  UNL1        0.1633
     28 O          46.1626   12.7054  -21.2128 O.3     1  UNL1       -0.3772
     29 H          45.7281   13.4988  -20.8040 H       1  UNL1        0.2109
     30 C          50.7793   12.2427  -18.7556 C.3     1  UNL1        0.0898
     31 N          51.2886   12.4234  -20.1340 N.3     1  UNL1       -0.2693
     32 C          52.4119   13.3832  -20.1545 C.3     1  UNL1        0.0898
@<TRIPOS>BOND
     1    30    31    1
     2    31    32    1
     3     1    31    1
     4     1    21    1
     5    21    22   ar
     6    22    23   ar
     7    23    24   ar
     8    24    25   ar
     9    25    26   ar
    10    26    27    1
    11    27    28    1
    12     1     2    1
    13     2     3    1
    14     3     4    1
    15     4     5    1
    16     5     6    1
    17     4     7    1
    18     7     8    1
    19     8     9    1
    20     9    10    1
    21    10    11   ar
    22    11    12   ar
    23    12    13   ar
    24    13    14    1
    25    13    15   ar
    26    15    16   ar
    27    16    17   ar
    28    17    18   ar
    29    18    19   ar
    30     6     1    1
    31    19    10   ar
    32    26    21   ar
    33    19     4    1
    34    17    11   ar
    35    28    29    1
    36    18    20    1
@<TRIPOS>MOLECULE
*****
 32 36 0 0 0
SMALL
GASTEIGER

@<TRIPOS>ATOM
      1 C          49.0094   11.4280  -22.9027 C.3     1  UNL1        0.0643
      2 C          47.9639   10.6667  -23.7919 C.3     1  UNL1        0.0217
      3 C          46.9048   11.6070  -24.3916 C.3     1  UNL1        0.0346
      4 C          47.5005   12.7838  -25.2300 C.3     1  UNL1        0.1252
      5 C          49.0523   12.7932  -25.1610 C.3     1  UNL1        0.0346
      6 C          49.6101   12.6428  -23.7334 C.3     1  UNL1        0.0217
      7 O          46.9657   14.0007  -24.6843 O.3     1  UNL1       -0.3527
      8 C          47.0110   15.1247  -25.5612 C.3     1  UNL1        0.1472
      9 C          46.1241   14.9240  -26.7988 C.3     1  UNL1        0.0597
     10 C          46.4671   13.6081  -27.3930 C.ar    1  UNL1       -0.0045
     11 C          46.2327   13.0970  -28.6489 C.ar    1  UNL1        0.0151
     12 C          45.6288   13.6501  -29.7759 C.ar    1  UNL1        0.0308
     13 C          45.5460   12.8507  -30.9313 C.ar    1  UNL1        0.1402
     14 F          44.9673   13.3463  -32.0525 F       1  UNL1       -0.2042
     15 C          46.0626   11.5345  -30.9301 C.ar    1  UNL1        0.0311
     16 C          46.6662   11.0040  -29.7744 C.ar    1  UNL1        0.0193
     17 C          46.7350   11.8167  -28.6441 C.ar    1  UNL1        0.0563
     18 N          47.2614   11.5038  -27.4433 N.ar    1  UNL1       -0.3549
     19 C          47.0782   12.6061  -26.6773 C.ar    1  UNL1        0.0544
     20 H          47.7074   10.6021  -27.1627 H       1  UNL1        0.1657
     21 C          48.2380   11.8655  -21.6102 C.ar    1  UNL1       -0.0109
     22 C          46.9176   11.4008  -21.3709 C.ar    1  UNL1       -0.0033
     23 C          46.1757   11.8229  -20.2707 C.ar    1  UNL1       -0.0003
     24 C          46.7249   12.7059  -19.3558 C.ar    1  UNL1       -0.0003
     25 C          48.0397   13.1276  -19.5050 C.ar    1  UNL1       -0.0021
     26 C          48.8376   12.6764  -20.5776 C.ar    1  UNL1        0.0042
     27 C          50.2823   13.1515  -20.5881 C.3     1  UNL1        0.1633
     28 O          51.1555   12.0839  -20.3310 O.3     1  UNL1       -0.3772
     29 H          52.0651   12.4765  -20.2674 H       1  UNL1        0.2109
     30 C          51.0502   10.1362  -23.5920 C.3     1  UNL1        0.0898
     31 N          50.1356   10.5196  -22.4927 N.3     1  UNL1       -0.2693
     32 C          49.7623    9.3382  -21.6874 C.3     1  UNL1        0.0898
@<TRIPOS>BOND
     1    30    31    1
     2    31    32    1
     3     1    31    1
     4     1    21    1
     5    21    22   ar
     6    22    23   ar
     7    23    24   ar
     8    24    25   ar
     9    25    26   ar
    10    26    27    1
    11    27    28    1
    12     1     2    1
    13     2     3    1
    14     3     4    1
    15     4     5    1
    16     5     6    1
    17     4     7    1
    18     7     8    1
    19     8     9    1
    20     9    10    1
    21    10    11   ar
    22    11    12   ar
    23    12    13   ar
    24    13    14    1
    25    13    15   ar
    26    15    16   ar
    27    16    17   ar
    28    17    18   ar
    29    18    19   ar
    30     6     1    1
    31    19    10   ar
    32    26    21   ar
    33    19     4    1
    34    17    11   ar
    35    28    29    1
    36    18    20    1
@<TRIPOS>MOLECULE
*****
 32 36 0 0 0
SMALL
GASTEIGER

@<TRIPOS>ATOM
      1 C          48.3826   11.4963  -23.1342 C.3     1  UNL1        0.0643
      2 C          47.9276   11.3728  -24.6312 C.3     1  UNL1        0.0217
      3 C          49.0246   11.8065  -25.6180 C.3     1  UNL1        0.0346
      4 C          50.3739   11.0363  -25.4481 C.3     1  UNL1        0.1252
      5 C          50.3246   10.0804  -24.2247 C.3     1  UNL1        0.0346
      6 C          49.7661   10.7361  -22.9480 C.3     1  UNL1        0.0217
      7 O          51.4020   12.0247  -25.2727 O.3     1  UNL1       -0.3527
      8 C          52.7253   11.5735  -25.5553 C.3     1  UNL1        0.1472
      9 C          52.9019   11.2018  -27.0349 C.3     1  UNL1        0.0597
     10 C          51.7971   10.2830  -27.4059 C.ar    1  UNL1       -0.0045
     11 C          51.6646    9.4127  -28.4634 C.ar    1  UNL1        0.0151
     12 C          52.5264    9.0871  -29.5085 C.ar    1  UNL1        0.0308
     13 C          52.0852    8.1351  -30.4465 C.ar    1  UNL1        0.1402
     14 F          52.8895    7.7861  -31.4803 F       1  UNL1       -0.2042
     15 C          50.8089    7.5404  -30.3173 C.ar    1  UNL1        0.0311
     16 C          49.9608    7.8917  -29.2502 C.ar    1  UNL1        0.0193
     17 C          50.4220    8.8371  -28.3357 C.ar    1  UNL1        0.0563
     18 N          49.7720    9.3145  -27.2557 N.ar    1  UNL1       -0.3549
     19 C          50.6196   10.2134  -26.7000 C.ar    1  UNL1        0.0544
     20 H          48.8169    9.0526  -26.9242 H       1  UNL1        0.1657
     21 C          48.4596   13.0326  -22.8328 C.ar    1  UNL1       -0.0109
     22 C          47.5356   13.9286  -23.4330 C.ar    1  UNL1       -0.0033
     23 C          47.6161   15.3059  -23.2447 C.ar    1  UNL1       -0.0003
     24 C          48.6042   15.8433  -22.4366 C.ar    1  UNL1       -0.0003
     25 C          49.4829   15.0023  -21.7663 C.ar    1  UNL1       -0.0021
     26 C          49.3948   13.5996  -21.8908 C.ar    1  UNL1        0.0042
     27 C          50.3654   12.7868  -21.0481 C.3     1  UNL1        0.1633
     28 O          51.6833   12.9785  -21.4893 O.3     1  UNL1       -0.3772
     29 H          52.2484   12.3592  -20.9576 H       1  UNL1        0.2109
     30 C          46.6491   11.8586  -21.3530 C.3     1  UNL1        0.0898
     31 N          47.3678   10.8861  -22.2072 N.3     1  UNL1       -0.2693
     32 C          47.8232    9.7276  -21.4109 C.3     1  UNL1        0.0898
@<TRIPOS>BOND
     1    30    31    1
     2    31    32    1
     3     1    31    1
     4     1    21    1
     5    21    22   ar
     6    22    23   ar
     7    23    24   ar
     8    24    25   ar
     9    25    26   ar
    10    26    27    1
    11    27    28    1
    12     1     2    1
    13     2     3    1
    14     3     4    1
    15     4     5    1
    16     5     6    1
    17     4     7    1
    18     7     8    1
    19     8     9    1
    20     9    10    1
    21    10    11   ar
    22    11    12   ar
    23    12    13   ar
    24    13    14    1
    25    13    15   ar
    26    15    16   ar
    27    16    17   ar
    28    17    18   ar
    29    18    19   ar
    30     6     1    1
    31    19    10   ar
    32    26    21   ar
    33    19     4    1
    34    17    11   ar
    35    28    29    1
    36    18    20    1
@<TRIPOS>MOLECULE
*****
 32 36 0 0 0
SMALL
GASTEIGER

@<TRIPOS>ATOM
      1 C          48.6613   11.5923  -23.1652 C.3     1  UNL1        0.0643
      2 C          48.1072   11.2653  -24.5968 C.3     1  UNL1        0.0217
      3 C          49.0600   11.7197  -25.7153 C.3     1  UNL1        0.0346
      4 C          50.5034   11.1314  -25.5995 C.3     1  UNL1        0.1252
      5 C          50.6702   10.3058  -24.2943 C.3     1  UNL1        0.0346
      6 C          50.1385   11.0193  -23.0374 C.3     1  UNL1        0.0217
      7 O          51.4122   12.2442  -25.6100 O.3     1  UNL1       -0.3527
      8 C          52.7543   11.9220  -25.9698 C.3     1  UNL1        0.1472
      9 C          52.8570   11.4244  -27.4190 C.3     1  UNL1        0.0597
     10 C          51.8481   10.3515  -27.6018 C.ar    1  UNL1       -0.0045
     11 C          51.7402    9.3685  -28.5586 C.ar    1  UNL1        0.0151
     12 C          52.5496    9.0396  -29.6438 C.ar    1  UNL1        0.0308
     13 C          52.1561    7.9525  -30.4465 C.ar    1  UNL1        0.1402
     14 F          52.9124    7.5950  -31.5131 F       1  UNL1       -0.2042
     15 C          50.9774    7.2311  -30.1473 C.ar    1  UNL1        0.0311
     16 C          50.1801    7.5893  -29.0440 C.ar    1  UNL1        0.0193
     17 C          50.5924    8.6696  -28.2658 C.ar    1  UNL1        0.0563
     18 N          49.9766    9.1766  -27.1793 N.ar    1  UNL1       -0.3549
     19 C          50.7483   10.2190  -26.7879 C.ar    1  UNL1        0.0544
     20 H          49.0906    8.8416  -26.7393 H       1  UNL1        0.1657
     21 C          48.5717   13.1499  -23.0141 C.ar    1  UNL1       -0.0109
     22 C          49.7198   13.9028  -22.6516 C.ar    1  UNL1       -0.0033
     23 C          49.6629   15.2779  -22.4397 C.ar    1  UNL1       -0.0003
     24 C          48.4682   15.9598  -22.6004 C.ar    1  UNL1       -0.0003
     25 C          47.3359   15.2798  -23.0295 C.ar    1  UNL1       -0.0021
     26 C          47.3717   13.8969  -23.3066 C.ar    1  UNL1        0.0042
     27 C          46.0865   13.2840  -23.8410 C.3     1  UNL1        0.1633
     28 O          45.4944   12.4567  -22.8748 O.3     1  UNL1       -0.3772
     29 H          44.7156   12.0267  -23.3152 H       1  UNL1        0.2109
     30 C          47.9145   11.6075  -20.7671 C.3     1  UNL1        0.0898
     31 N          47.8067   10.9668  -22.0975 N.3     1  UNL1       -0.2693
     32 C          47.8836    9.4961  -21.9769 C.3     1  UNL1        0.0898
@<TRIPOS>BOND
     1    30    31    1
     2    31    32    1
     3     1    31    1
     4     1    21    1
     5    21    22   ar
     6    22    23   ar
     7    23    24   ar
     8    24    25   ar
     9    25    26   ar
    10    26    27    1
    11    27    28    1
    12     1     2    1
    13     2     3    1
    14     3     4    1
    15     4     5    1
    16     5     6    1
    17     4     7    1
    18     7     8    1
    19     8     9    1
    20     9    10    1
    21    10    11   ar
    22    11    12   ar
    23    12    13   ar
    24    13    14    1
    25    13    15   ar
    26    15    16   ar
    27    16    17   ar
    28    17    18   ar
    29    18    19   ar
    30     6     1    1
    31    19    10   ar
    32    26    21   ar
    33    19     4    1
    34    17    11   ar
    35    28    29    1
    36    18    20    1
@<TRIPOS>MOLECULE
*****
 32 36 0 0 0
SMALL
GASTEIGER

@<TRIPOS>ATOM
      1 C          50.9674   11.2032  -24.1768 C.3     1  UNL1        0.0643
      2 C          51.7232    9.8783  -24.5467 C.3     1  UNL1        0.0217
      3 C          50.9191    8.9914  -25.5123 C.3     1  UNL1        0.0346
      4 C          50.5035    9.7080  -26.8376 C.3     1  UNL1        0.1252
      5 C          50.9067   11.2080  -26.8153 C.3     1  UNL1        0.0346
      6 C          50.5179   11.9349  -25.5144 C.3     1  UNL1        0.0217
      7 O          49.0782    9.5723  -26.9589 O.3     1  UNL1       -0.3527
      8 C          48.5675    9.7428  -28.2797 C.3     1  UNL1        0.1472
      9 C          49.0654    8.6475  -29.2342 C.3     1  UNL1        0.0597
     10 C          50.5414    8.5681  -29.1015 C.ar    1  UNL1       -0.0045
     11 C          51.4933    8.0211  -29.9310 C.ar    1  UNL1        0.0151
     12 C          51.3912    7.3939  -31.1708 C.ar    1  UNL1        0.0308
     13 C          52.5795    6.9396  -31.7728 C.ar    1  UNL1        0.1402
     14 F          52.5298    6.3237  -32.9794 F       1  UNL1       -0.2042
     15 C          53.8243    7.1217  -31.1275 C.ar    1  UNL1        0.0311
     16 C          53.8939    7.7586  -29.8741 C.ar    1  UNL1        0.0193
     17 C          52.7024    8.1985  -29.3001 C.ar    1  UNL1        0.0563
     18 N          52.5472    8.8205  -28.1144 N.ar    1  UNL1       -0.3549
     19 C          51.2141    9.0297  -27.9951 C.ar    1  UNL1        0.0544
     20 H          53.2944    9.0782  -27.4317 H       1  UNL1        0.1657
     21 C          49.7721   10.7749  -23.2576 C.ar    1  UNL1       -0.0109
     22 C          50.0012    9.9661  -22.1131 C.ar    1  UNL1       -0.0033
     23 C          48.9574    9.5081  -21.3133 C.ar    1  UNL1       -0.0003
     24 C          47.6490    9.8535  -21.6081 C.ar    1  UNL1       -0.0003
     25 C          47.3814   10.7060  -22.6713 C.ar    1  UNL1       -0.0021
     26 C          48.4195   11.2327  -23.4685 C.ar    1  UNL1        0.0042
     27 C          48.0033   12.2130  -24.5542 C.3     1  UNL1        0.1633
     28 O          47.2810   11.5567  -25.5622 O.3     1  UNL1       -0.3772
     29 H          47.1176   12.2309  -26.2723 H       1  UNL1        0.2109
     30 C          51.2245   13.4205  -23.0250 C.3     1  UNL1        0.0898
     31 N          51.8535   12.1317  -23.3929 N.3     1  UNL1       -0.2693
     32 C          53.2123   12.3483  -23.9315 C.3     1  UNL1        0.0898
@<TRIPOS>BOND
     1    30    31    1
     2    31    32    1
     3     1    31    1
     4     1    21    1
     5    21    22   ar
     6    22    23   ar
     7    23    24   ar
     8    24    25   ar
     9    25    26   ar
    10    26    27    1
    11    27    28    1
    12     1     2    1
    13     2     3    1
    14     3     4    1
    15     4     5    1
    16     5     6    1
    17     4     7    1
    18     7     8    1
    19     8     9    1
    20     9    10    1
    21    10    11   ar
    22    11    12   ar
    23    12    13   ar
    24    13    14    1
    25    13    15   ar
    26    15    16   ar
    27    16    17   ar
    28    17    18   ar
    29    18    19   ar
    30     6     1    1
    31    19    10   ar
    32    26    21   ar
    33    19     4    1
    34    17    11   ar
    35    28    29    1
    36    18    20    1
@<TRIPOS>MOLECULE
*****
 32 36 0 0 0
SMALL
GASTEIGER

@<TRIPOS>ATOM
      1 C          50.4976   11.3931  -23.3162 C.3     1  UNL1        0.0643
      2 C          49.1632   11.1038  -24.0901 C.3     1  UNL1        0.0217
      3 C          48.0573   12.1197  -23.7578 C.3     1  UNL1        0.0346
      4 C          48.4625   13.6074  -24.0134 C.3     1  UNL1        0.1252
      5 C          49.9523   13.7185  -24.4389 C.3     1  UNL1        0.0346
      6 C          50.9133   12.9098  -23.5477 C.3     1  UNL1        0.0217
      7 O          48.2353   14.3208  -22.7870 O.3     1  UNL1       -0.3527
      8 C          48.1032   15.7340  -22.9283 C.3     1  UNL1        0.1472
      9 C          46.8594   16.1161  -23.7440 C.3     1  UNL1        0.0597
     10 C          46.8812   15.3257  -24.9999 C.ar    1  UNL1       -0.0045
     11 C          46.2211   15.5100  -26.1930 C.ar    1  UNL1        0.0151
     12 C          45.3462   16.5052  -26.6233 C.ar    1  UNL1        0.0308
     13 C          44.8354   16.4052  -27.9309 C.ar    1  UNL1        0.1402
     14 F          43.9811   17.3504  -28.3938 F       1  UNL1       -0.2042
     15 C          45.2077   15.3256  -28.7647 C.ar    1  UNL1        0.0311
     16 C          46.0933   14.3351  -28.2998 C.ar    1  UNL1        0.0193
     17 C          46.5841   14.4579  -27.0011 C.ar    1  UNL1        0.0563
     18 N          47.4301   13.6235  -26.3647 N.ar    1  UNL1       -0.3549
     19 C          47.5943   14.1578  -25.1306 C.ar    1  UNL1        0.0544
     20 H          47.8598   12.7491  -26.7408 H       1  UNL1        0.1657
     21 C          50.2115   11.0375  -21.8166 C.ar    1  UNL1       -0.0109
     22 C          49.7693    9.7361  -21.4596 C.ar    1  UNL1       -0.0033
     23 C          49.4383    9.4038  -20.1485 C.ar    1  UNL1       -0.0003
     24 C          49.5541   10.3455  -19.1395 C.ar    1  UNL1       -0.0003
     25 C          50.0560   11.6083  -19.4261 C.ar    1  UNL1       -0.0021
     26 C          50.4529   11.9606  -20.7334 C.ar    1  UNL1        0.0042
     27 C          51.0558   13.3464  -20.9034 C.3     1  UNL1        0.1633
     28 O          50.1186   14.3369  -20.5734 O.3     1  UNL1       -0.3772
     29 H          50.5455   15.2073  -20.7873 H       1  UNL1        0.2109
     30 C          52.7378   11.2270  -24.4399 C.3     1  UNL1        0.0898
     31 N          51.6104   10.5075  -23.8049 N.3     1  UNL1       -0.2693
     32 C          51.2085    9.3425  -24.6201 C.3     1  UNL1        0.0898
@<TRIPOS>BOND
     1    30    31    1
     2    31    32    1
     3     1    31    1
     4     1    21    1
     5    21    22   ar
     6    22    23   ar
     7    23    24   ar
     8    24    25   ar
     9    25    26   ar
    10    26    27    1
    11    27    28    1
    12     1     2    1
    13     2     3    1
    14     3     4    1
    15     4     5    1
    16     5     6    1
    17     4     7    1
    18     7     8    1
    19     8     9    1
    20     9    10    1
    21    10    11   ar
    22    11    12   ar
    23    12    13   ar
    24    13    14    1
    25    13    15   ar
    26    15    16   ar
    27    16    17   ar
    28    17    18   ar
    29    18    19   ar
    30     6     1    1
    31    19    10   ar
    32    26    21   ar
    33    19     4    1
    34    17    11   ar
    35    28    29    1
    36    18    20    1
@<TRIPOS>MOLECULE
*****
 32 36 0 0 0
SMALL
GASTEIGER

@<TRIPOS>ATOM
      1 C          49.6389   12.1161  -21.8334 C.3     1  UNL1        0.0643
      2 C          50.6902   13.0381  -22.5462 C.3     1  UNL1        0.0217
      3 C          50.3737   13.2499  -24.0363 C.3     1  UNL1        0.0346
      4 C          48.9472   13.8280  -24.3077 C.3     1  UNL1        0.1252
      5 C          48.1287   13.9440  -22.9926 C.3     1  UNL1        0.0346
      6 C          48.1793   12.6777  -22.1175 C.3     1  UNL1        0.0217
      7 O          48.2992   12.9325  -25.2258 O.3     1  UNL1       -0.3527
      8 C          47.2022   13.4955  -25.9427 C.3     1  UNL1        0.1472
      9 C          47.6480   14.6290  -26.8781 C.3     1  UNL1        0.0597
     10 C          48.4727   15.5733  -26.0839 C.ar    1  UNL1       -0.0045
     11 C          48.8294   16.8805  -26.3233 C.ar    1  UNL1        0.0151
     12 C          48.5138   17.7508  -27.3644 C.ar    1  UNL1        0.0308
     13 C          49.0463   19.0525  -27.3118 C.ar    1  UNL1        0.1402
     14 F          48.7661   19.9347  -28.3021 F       1  UNL1       -0.2042
     15 C          49.8711   19.4458  -26.2329 C.ar    1  UNL1        0.0311
     16 C          50.1726   18.5422  -25.1965 C.ar    1  UNL1        0.0193
     17 C          49.6326   17.2595  -25.2732 C.ar    1  UNL1        0.0563
     18 N          49.8003   16.2485  -24.3977 N.ar    1  UNL1       -0.3549
     19 C          49.0957   15.2124  -24.9129 C.ar    1  UNL1        0.0544
     20 H          50.3598   16.2603  -23.5160 H       1  UNL1        0.1657
     21 C          49.8815   10.6727  -22.3944 C.ar    1  UNL1       -0.0109
     22 C          50.6930   10.4764  -23.5431 C.ar    1  UNL1       -0.0033
     23 C          50.8744    9.2181  -24.1112 C.ar    1  UNL1       -0.0003
     24 C          50.2736    8.1048  -23.5476 C.ar    1  UNL1       -0.0003
     25 C          49.5343    8.2348  -22.3791 C.ar    1  UNL1       -0.0021
     26 C          49.3763    9.4859  -21.7464 C.ar    1  UNL1        0.0042
     27 C          48.6080    9.4842  -20.4339 C.3     1  UNL1        0.1633
     28 O          49.4856    9.3471  -19.3478 O.3     1  UNL1       -0.3772
     29 H          48.9170    9.2674  -18.5380 H       1  UNL1        0.2109
     30 C          48.8352   12.7956  -19.5528 C.3     1  UNL1        0.0898
     31 N          49.8640   12.0863  -20.3468 N.3     1  UNL1       -0.2693
     32 C          51.2206   12.4449  -19.8838 C.3     1  UNL1        0.0898
@<TRIPOS>BOND
     1    30    31    1
     2    31    32    1
     3     1    31    1
     4     1    21    1
     5    21    22   ar
     6    22    23   ar
     7    23    24   ar
     8    24    25   ar
     9    25    26   ar
    10    26    27    1
    11    27    28    1
    12     1     2    1
    13     2     3    1
    14     3     4    1
    15     4     5    1
    16     5     6    1
    17     4     7    1
    18     7     8    1
    19     8     9    1
    20     9    10    1
    21    10    11   ar
    22    11    12   ar
    23    12    13   ar
    24    13    14    1
    25    13    15   ar
    26    15    16   ar
    27    16    17   ar
    28    17    18   ar
    29    18    19   ar
    30     6     1    1
    31    19    10   ar
    32    26    21   ar
    33    19     4    1
    34    17    11   ar
    35    28    29    1
    36    18    20    1
@<TRIPOS>MOLECULE
*****
 32 36 0 0 0
SMALL
GASTEIGER

@<TRIPOS>ATOM
      1 C          49.0604   12.6174  -24.5192 C.3     1  UNL1        0.0643
      2 C          49.7638   13.5816  -23.4999 C.3     1  UNL1        0.0217
      3 C          48.9241   13.8132  -22.2324 C.3     1  UNL1        0.0346
      4 C          48.5332   12.5005  -21.4796 C.3     1  UNL1        0.1252
      5 C          48.9937   11.2431  -22.2670 C.3     1  UNL1        0.0346
      6 C          48.6362   11.2844  -23.7644 C.3     1  UNL1        0.0217
      7 O          47.1034   12.5084  -21.3368 O.3     1  UNL1       -0.3527
      8 C          46.5965   11.6617  -20.3071 C.3     1  UNL1        0.1472
      9 C          47.0497   12.1183  -18.9126 C.3     1  UNL1        0.0597
     10 C          48.5219   12.3016  -18.9525 C.ar    1  UNL1       -0.0045
     11 C          49.4501   12.3689  -17.9389 C.ar    1  UNL1        0.0151
     12 C          49.3211   12.2588  -16.5562 C.ar    1  UNL1        0.0308
     13 C          50.4896   12.3722  -15.7800 C.ar    1  UNL1        0.1402
     14 F          50.4135   12.2712  -14.4303 F       1  UNL1       -0.2042
     15 C          51.7420   12.5906  -16.3988 C.ar    1  UNL1        0.0311
     16 C          51.8390   12.6987  -17.7989 C.ar    1  UNL1        0.0193
     17 C          50.6667   12.5827  -18.5438 C.ar    1  UNL1        0.0563
     18 N          50.5382   12.6613  -19.8833 N.ar    1  UNL1       -0.3549
     19 C          49.2144   12.5023  -20.1229 C.ar    1  UNL1        0.0544
     20 H          51.2963   12.8188  -20.5841 H       1  UNL1        0.1657
     21 C          47.8517   13.4222  -25.1094 C.ar    1  UNL1       -0.0109
     22 C          46.5205   12.9751  -24.8983 C.ar    1  UNL1       -0.0033
     23 C          45.4264   13.6237  -25.4651 C.ar    1  UNL1       -0.0003
     24 C          45.6119   14.7527  -26.2455 C.ar    1  UNL1       -0.0003
     25 C          46.8880   15.2732  -26.4168 C.ar    1  UNL1       -0.0021
     26 C          48.0123   14.6731  -25.8114 C.ar    1  UNL1        0.0042
     27 C          49.3433   15.3807  -26.0133 C.3     1  UNL1        0.1633
     28 O          49.4382   15.8927  -27.3161 O.3     1  UNL1       -0.3772
     29 H          50.3556   16.2615  -27.4048 H       1  UNL1        0.2109
     30 C          49.7083   10.9462  -26.2789 C.3     1  UNL1        0.0898
     31 N          49.9833   12.2586  -25.6511 N.3     1  UNL1       -0.2693
     32 C          51.4290   12.4215  -25.3923 C.3     1  UNL1        0.0898
@<TRIPOS>BOND
     1    30    31    1
     2    31    32    1
     3     1    31    1
     4     1    21    1
     5    21    22   ar
     6    22    23   ar
     7    23    24   ar
     8    24    25   ar
     9    25    26   ar
    10    26    27    1
    11    27    28    1
    12     1     2    1
    13     2     3    1
    14     3     4    1
    15     4     5    1
    16     5     6    1
    17     4     7    1
    18     7     8    1
    19     8     9    1
    20     9    10    1
    21    10    11   ar
    22    11    12   ar
    23    12    13   ar
    24    13    14    1
    25    13    15   ar
    26    15    16   ar
    27    16    17   ar
    28    17    18   ar
    29    18    19   ar
    30     6     1    1
    31    19    10   ar
    32    26    21   ar
    33    19     4    1
    34    17    11   ar
    35    28    29    1
    36    18    20    1
@<TRIPOS>MOLECULE
*****
 32 36 0 0 0
SMALL
GASTEIGER

@<TRIPOS>ATOM
      1 C          48.1575   14.2980  -25.6015 C.3     1  UNL1        0.0643
      2 C          47.2342   14.2707  -24.3326 C.3     1  UNL1        0.0217
      3 C          47.2679   12.9142  -23.6086 C.3     1  UNL1        0.0346
      4 C          48.7004   12.4544  -23.1855 C.3     1  UNL1        0.1252
      5 C          49.7833   13.4374  -23.7091 C.3     1  UNL1        0.0346
      6 C          49.6147   13.8118  -25.1934 C.3     1  UNL1        0.0217
      7 O          48.9012   11.1438  -23.7394 O.3     1  UNL1       -0.3527
      8 C          49.9234   10.3741  -23.1094 C.3     1  UNL1        0.1472
      9 C          49.5771   10.0439  -21.6500 C.3     1  UNL1        0.0597
     10 C          49.1945   11.3106  -20.9779 C.ar    1  UNL1       -0.0045
     11 C          49.1229   11.6373  -19.6432 C.ar    1  UNL1        0.0151
     12 C          49.4110   10.9049  -18.4936 C.ar    1  UNL1        0.0308
     13 C          49.2338   11.5423  -17.2514 C.ar    1  UNL1        0.1402
     14 F          49.5020   10.8696  -16.1055 F       1  UNL1       -0.2042
     15 C          48.7781   12.8794  -17.1911 C.ar    1  UNL1        0.0311
     16 C          48.4944   13.5923  -18.3712 C.ar    1  UNL1        0.0193
     17 C          48.6782   12.9376  -19.5878 C.ar    1  UNL1        0.0563
     18 N          48.4607   13.4316  -20.8229 N.ar    1  UNL1       -0.3549
     19 C          48.7667   12.4190  -21.6692 C.ar    1  UNL1        0.0544
     20 H          48.1217   14.3875  -21.0722 H       1  UNL1        0.1657
     21 C          47.4584   13.3801  -26.6626 C.ar    1  UNL1       -0.0109
     22 C          47.7651   11.9950  -26.7263 C.ar    1  UNL1       -0.0033
     23 C          47.2177   11.1628  -27.6993 C.ar    1  UNL1       -0.0003
     24 C          46.3290   11.6707  -28.6324 C.ar    1  UNL1       -0.0003
     25 C          45.9385   13.0016  -28.5628 C.ar    1  UNL1       -0.0021
     26 C          46.4311   13.8590  -27.5564 C.ar    1  UNL1        0.0042
     27 C          45.8702   15.2725  -27.5424 C.3     1  UNL1        0.1633
     28 O          46.5129   16.0687  -28.5024 O.3     1  UNL1       -0.3772
     29 H          46.1626   16.9896  -28.3808 H       1  UNL1        0.2109
     30 C          49.5268   15.9800  -26.8683 C.3     1  UNL1        0.0898
     31 N          48.2537   15.6861  -26.1719 N.3     1  UNL1       -0.2693
     32 C          47.8873   16.7927  -25.2639 C.3     1  UNL1        0.0898
@<TRIPOS>BOND
     1    30    31    1
     2    31    32    1
     3     1    31    1
     4     1    21    1
     5    21    22   ar
     6    22    23   ar
     7    23    24   ar
     8    24    25   ar
     9    25    26   ar
    10    26    27    1
    11    27    28    1
    12     1     2    1
    13     2     3    1
    14     3     4    1
    15     4     5    1
    16     5     6    1
    17     4     7    1
    18     7     8    1
    19     8     9    1
    20     9    10    1
    21    10    11   ar
    22    11    12   ar
    23    12    13   ar
    24    13    14    1
    25    13    15   ar
    26    15    16   ar
    27    16    17   ar
    28    17    18   ar
    29    18    19   ar
    30     6     1    1
    31    19    10   ar
    32    26    21   ar
    33    19     4    1
    34    17    11   ar
    35    28    29    1
    36    18    20    1
