@<TRIPOS>MOLECULE
*****
 40 44 0 0 0
SMALL
GASTEIGER

@<TRIPOS>ATOM
      1 C         -60.4596  -43.1934  -22.1948 C.3     1  UNL1        0.2392
      2 O         -61.1986  -44.4189  -22.1489 O.3     1  UNL1       -0.4694
      3 C         -61.7177  -45.0034  -23.3071 C.ar    1  UNL1        0.1723
      4 C         -62.1856  -46.3176  -23.2932 C.ar    1  UNL1        0.0398
      5 C         -62.7079  -46.8857  -24.4593 C.ar    1  UNL1        0.0026
      6 C         -62.7539  -46.1444  -25.6586 C.ar    1  UNL1        0.0233
      7 C         -62.2857  -44.8171  -25.6545 C.ar    1  UNL1        0.0393
      8 C         -61.7866  -44.2471  -24.4814 C.ar    1  UNL1        0.1725
      9 O         -61.3919  -42.9045  -24.4550 O.3     1  UNL1       -0.4679
     10 C         -61.0839  -42.2204  -23.2313 C.3     1  UNL1        0.2305
     11 C         -63.3763  -46.6982  -26.9286 C.3     1  UNL1        0.2223
     12 O         -63.9860  -45.6673  -27.7176 O.3     1  UNL1       -0.4715
     13 C         -63.3076  -44.9550  -28.7180 C.ar    1  UNL1        0.1477
     14 C         -63.9241  -43.8465  -29.2992 C.ar    1  UNL1        0.0741
     15 C         -63.2616  -43.0876  -30.2659 C.ar    1  UNL1        0.1448
     16 C         -61.9610  -43.4544  -30.6576 C.ar    1  UNL1        0.0741
     17 C         -61.3291  -44.5814  -30.0933 C.ar    1  UNL1        0.1475
     18 C         -62.0152  -45.3392  -29.1191 C.ar    1  UNL1        0.1052
     19 C         -61.4394  -46.5560  -28.5013 C.2     1  UNL1        0.2095
     20 O         -60.2175  -46.8391  -28.6278 O.2     1  UNL1       -0.2884
     21 C         -62.3414  -47.4960  -27.7550 C.3     1  UNL1        0.2169
     22 O         -63.0010  -48.3105  -28.6883 O.3     1  UNL1       -0.3739
     23 H         -63.3532  -49.0929  -28.1884 H       1  UNL1        0.2110
     24 O         -63.9275  -41.9782  -30.8089 O.3     1  UNL1       -0.4712
     25 C         -64.8624  -41.1720  -30.0992 C.3     1  UNL1        0.2525
     26 O         -60.0376  -44.9723  -30.4862 O.3     1  UNL1       -0.4711
     27 C         -59.4085  -44.5912  -31.7055 C.3     1  UNL1        0.2525
     28 C         -62.3116  -41.5314  -22.6599 C.ar    1  UNL1        0.0241
     29 C         -63.5251  -41.6034  -23.3610 C.ar    1  UNL1        0.0026
     30 C         -64.6634  -40.9522  -22.8834 C.ar    1  UNL1        0.0398
     31 C         -64.6094  -40.2017  -21.6948 C.ar    1  UNL1        0.1724
     32 C         -63.3995  -40.1065  -20.9918 C.ar    1  UNL1        0.1722
     33 C         -62.2556  -40.7660  -21.4806 C.ar    1  UNL1        0.0393
     34 O         -65.7336  -39.5346  -21.1827 O.3     1  UNL1       -0.4684
     35 C         -67.0412  -39.6124  -21.7410 C.3     1  UNL1        0.2526
     36 O         -63.3717  -39.3455  -19.8115 O.3     1  UNL1       -0.4684
     37 C         -63.6783  -39.8521  -18.5155 C.3     1  UNL1        0.2526
     38 C         -58.9901  -43.4949  -22.5365 C.3     1  UNL1        0.1897
     39 C         -57.3431  -45.1319  -22.5795 C.3     1  UNL1        0.1743
     40 O         -58.6733  -44.8369  -22.2140 O.3     1  UNL1       -0.3471
@<TRIPOS>BOND
     1    39    40    1
     2    40    38    1
     3    38     1    1
     4     1     2    1
     5     2     3    1
     6     3     4   ar
     7     4     5   ar
     8     5     6   ar
     9     6    11    1
    10    11    12    1
    11    12    13    1
    12    13    14   ar
    13    14    15   ar
    14    15    24    1
    15    24    25    1
    16    15    16   ar
    17    16    17   ar
    18    17    26    1
    19    26    27    1
    20    17    18   ar
    21    18    19    1
    22    19    20    2
    23    19    21    1
    24    21    22    1
    25     6     7   ar
    26     7     8   ar
    27     8     9    1
    28     9    10    1
    29    10    28    1
    30    28    29   ar
    31    29    30   ar
    32    30    31   ar
    33    31    34    1
    34    34    35    1
    35    31    32   ar
    36    32    36    1
    37    36    37    1
    38    32    33   ar
    39    10     1    1
    40    33    28   ar
    41     8     3   ar
    42    21    11    1
    43    18    13   ar
    44    22    23    1
@<TRIPOS>MOLECULE
*****
 40 44 0 0 0
SMALL
GASTEIGER

@<TRIPOS>ATOM
      1 C         -63.6586  -42.2647  -29.6620 C.3     1  UNL1        0.2392
      2 O         -64.1087  -42.2111  -28.3039 O.3     1  UNL1       -0.4694
      3 C         -63.2200  -42.3417  -27.2335 C.ar    1  UNL1        0.1723
      4 C         -63.6144  -42.0131  -25.9363 C.ar    1  UNL1        0.0398
      5 C         -62.7149  -42.1555  -24.8752 C.ar    1  UNL1        0.0026
      6 C         -61.4021  -42.6171  -25.1063 C.ar    1  UNL1        0.0233
      7 C         -61.0218  -42.9523  -26.4193 C.ar    1  UNL1        0.0393
      8 C         -61.9315  -42.8302  -27.4719 C.ar    1  UNL1        0.1725
      9 O         -61.5813  -43.2350  -28.7651 O.3     1  UNL1       -0.4679
     10 C         -62.5451  -43.3347  -29.8241 C.3     1  UNL1        0.2305
     11 C         -60.4164  -42.8525  -23.9749 C.3     1  UNL1        0.2223
     12 O         -60.5537  -41.8739  -22.9353 O.3     1  UNL1       -0.4715
     13 C         -61.4015  -42.0339  -21.8290 C.ar    1  UNL1        0.1477
     14 C         -61.6114  -40.9528  -20.9724 C.ar    1  UNL1        0.0741
     15 C         -62.4827  -41.0620  -19.8869 C.ar    1  UNL1        0.1448
     16 C         -63.1478  -42.2804  -19.6572 C.ar    1  UNL1        0.0741
     17 C         -62.9348  -43.3885  -20.5025 C.ar    1  UNL1        0.1475
     18 C         -62.0478  -43.2609  -21.5939 C.ar    1  UNL1        0.1052
     19 C         -61.7406  -44.3838  -22.5097 C.2     1  UNL1        0.2095
     20 O         -62.4366  -45.4348  -22.5137 O.2     1  UNL1       -0.2884
     21 C         -60.5449  -44.2870  -23.4126 C.3     1  UNL1        0.2169
     22 O         -59.4008  -44.6122  -22.6678 O.3     1  UNL1       -0.3739
     23 H         -58.6840  -44.8256  -23.3210 H       1  UNL1        0.2110
     24 O         -62.6616  -39.9391  -19.0647 O.3     1  UNL1       -0.4712
     25 C         -63.9234  -39.4782  -18.5923 C.3     1  UNL1        0.2525
     26 O         -63.5771  -44.6180  -20.2769 O.3     1  UNL1       -0.4711
     27 C         -64.8637  -44.7666  -19.6852 C.3     1  UNL1        0.2525
     28 C         -63.1394  -44.7309  -29.9001 C.ar    1  UNL1        0.0241
     29 C         -64.1834  -44.9819  -30.8036 C.ar    1  UNL1        0.0026
     30 C         -64.7766  -46.2432  -30.8742 C.ar    1  UNL1        0.0398
     31 C         -64.3444  -47.2825  -30.0304 C.ar    1  UNL1        0.1724
     32 C         -63.3133  -47.0423  -29.1104 C.ar    1  UNL1        0.1722
     33 C         -62.7205  -45.7669  -29.0451 C.ar    1  UNL1        0.0393
     34 O         -64.9156  -48.5642  -30.0737 O.3     1  UNL1       -0.4684
     35 C         -66.0851  -48.9014  -30.8128 C.3     1  UNL1        0.2526
     36 O         -62.9054  -48.0956  -28.2753 O.3     1  UNL1       -0.4684
     37 C         -63.4540  -48.3660  -26.9885 C.3     1  UNL1        0.2526
     38 C         -63.1548  -40.8751  -30.0891 C.3     1  UNL1        0.1897
     39 C         -61.1997  -39.7112  -29.6232 C.3     1  UNL1        0.1743
     40 O         -61.7434  -40.8756  -30.2051 O.3     1  UNL1       -0.3471
@<TRIPOS>BOND
     1    39    40    1
     2    40    38    1
     3    38     1    1
     4     1     2    1
     5     2     3    1
     6     3     4   ar
     7     4     5   ar
     8     5     6   ar
     9     6    11    1
    10    11    12    1
    11    12    13    1
    12    13    14   ar
    13    14    15   ar
    14    15    24    1
    15    24    25    1
    16    15    16   ar
    17    16    17   ar
    18    17    26    1
    19    26    27    1
    20    17    18   ar
    21    18    19    1
    22    19    20    2
    23    19    21    1
    24    21    22    1
    25     6     7   ar
    26     7     8   ar
    27     8     9    1
    28     9    10    1
    29    10    28    1
    30    28    29   ar
    31    29    30   ar
    32    30    31   ar
    33    31    34    1
    34    34    35    1
    35    31    32   ar
    36    32    36    1
    37    36    37    1
    38    32    33   ar
    39    10     1    1
    40    33    28   ar
    41     8     3   ar
    42    21    11    1
    43    18    13   ar
    44    22    23    1
@<TRIPOS>MOLECULE
*****
 40 44 0 0 0
SMALL
GASTEIGER

@<TRIPOS>ATOM
      1 C         -62.4619  -43.9649  -27.7741 C.3     1  UNL1        0.2392
      2 O         -63.2533  -43.2171  -26.8441 O.3     1  UNL1       -0.4694
      3 C         -62.7237  -42.7624  -25.6336 C.ar    1  UNL1        0.1723
      4 C         -63.4027  -41.8111  -24.8719 C.ar    1  UNL1        0.0398
      5 C         -62.8622  -41.3711  -23.6597 C.ar    1  UNL1        0.0026
      6 C         -61.6247  -41.8718  -23.2037 C.ar    1  UNL1        0.0233
      7 C         -60.9558  -42.8372  -23.9793 C.ar    1  UNL1        0.0393
      8 C         -61.5115  -43.2901  -25.1778 C.ar    1  UNL1        0.1725
      9 O         -60.8874  -44.3050  -25.9123 O.3     1  UNL1       -0.4679
     10 C         -61.5271  -44.9512  -27.0229 C.3     1  UNL1        0.2305
     11 C         -61.0362  -41.4738  -21.8612 C.3     1  UNL1        0.2223
     12 O         -61.5739  -40.2303  -21.3904 O.3     1  UNL1       -0.4715
     13 C         -62.7150  -40.1382  -20.5795 C.ar    1  UNL1        0.1477
     14 C         -63.2710  -38.8831  -20.3295 C.ar    1  UNL1        0.0741
     15 C         -64.4316  -38.7573  -19.5638 C.ar    1  UNL1        0.1448
     16 C         -65.0379  -39.9124  -19.0366 C.ar    1  UNL1        0.0741
     17 C         -64.4806  -41.1871  -19.2649 C.ar    1  UNL1        0.1475
     18 C         -63.3046  -41.2954  -20.0392 C.ar    1  UNL1        0.1052
     19 C         -62.6346  -42.5907  -20.2983 C.2     1  UNL1        0.2095
     20 O         -63.2086  -43.6857  -20.0521 O.2     1  UNL1       -0.2884
     21 C         -61.2248  -42.5962  -20.8147 C.3     1  UNL1        0.2169
     22 O         -60.3563  -42.3903  -19.7318 O.3     1  UNL1       -0.3739
     23 H         -59.4542  -42.6812  -20.0278 H       1  UNL1        0.2110
     24 O         -64.9506  -37.4707  -19.3530 O.3     1  UNL1       -0.4712
     25 C         -64.1612  -36.3174  -19.0802 C.3     1  UNL1        0.2525
     26 O         -65.0631  -42.3492  -18.7308 O.3     1  UNL1       -0.4711
     27 C         -65.6015  -42.4588  -17.4171 C.3     1  UNL1        0.2525
     28 C         -62.2873  -46.1893  -26.5783 C.ar    1  UNL1        0.0241
     29 C         -62.4862  -46.4145  -25.2076 C.ar    1  UNL1        0.0026
     30 C         -63.1485  -47.5596  -24.7626 C.ar    1  UNL1        0.0398
     31 C         -63.6180  -48.5144  -25.6827 C.ar    1  UNL1        0.1724
     32 C         -63.4120  -48.3116  -27.0551 C.ar    1  UNL1        0.1722
     33 C         -62.7424  -47.1540  -27.4958 C.ar    1  UNL1        0.0393
     34 O         -64.2898  -49.6771  -25.2730 O.3     1  UNL1       -0.4684
     35 C         -63.7485  -50.6514  -24.3868 C.3     1  UNL1        0.2526
     36 O         -63.8852  -49.2837  -27.9518 O.3     1  UNL1       -0.4684
     37 C         -64.3770  -49.0060  -29.2599 C.3     1  UNL1        0.2526
     38 C         -61.6507  -42.9952  -28.6509 C.3     1  UNL1        0.1897
     39 C         -61.6925  -40.7369  -29.1916 C.3     1  UNL1        0.1743
     40 O         -62.4618  -41.9132  -29.0714 O.3     1  UNL1       -0.3471
@<TRIPOS>BOND
     1    39    40    1
     2    40    38    1
     3    38     1    1
     4     1     2    1
     5     2     3    1
     6     3     4   ar
     7     4     5   ar
     8     5     6   ar
     9     6    11    1
    10    11    12    1
    11    12    13    1
    12    13    14   ar
    13    14    15   ar
    14    15    24    1
    15    24    25    1
    16    15    16   ar
    17    16    17   ar
    18    17    26    1
    19    26    27    1
    20    17    18   ar
    21    18    19    1
    22    19    20    2
    23    19    21    1
    24    21    22    1
    25     6     7   ar
    26     7     8   ar
    27     8     9    1
    28     9    10    1
    29    10    28    1
    30    28    29   ar
    31    29    30   ar
    32    30    31   ar
    33    31    34    1
    34    34    35    1
    35    31    32   ar
    36    32    36    1
    37    36    37    1
    38    32    33   ar
    39    10     1    1
    40    33    28   ar
    41     8     3   ar
    42    21    11    1
    43    18    13   ar
    44    22    23    1
@<TRIPOS>MOLECULE
*****
 40 44 0 0 0
SMALL
GASTEIGER

@<TRIPOS>ATOM
      1 C         -62.8992  -47.2398  -27.7368 C.3     1  UNL1        0.2392
      2 O         -61.6228  -47.0366  -27.1206 O.3     1  UNL1       -0.4694
      3 C         -61.4424  -46.0918  -26.1070 C.ar    1  UNL1        0.1723
      4 C         -60.2844  -46.0942  -25.3291 C.ar    1  UNL1        0.0398
      5 C         -60.1166  -45.1380  -24.3228 C.ar    1  UNL1        0.0026
      6 C         -61.1173  -44.1749  -24.0760 C.ar    1  UNL1        0.0233
      7 C         -62.2762  -44.1803  -24.8747 C.ar    1  UNL1        0.0393
      8 C         -62.4283  -45.1231  -25.8936 C.ar    1  UNL1        0.1725
      9 O         -63.5432  -45.0834  -26.7387 O.3     1  UNL1       -0.4679
     10 C         -63.6336  -45.8849  -27.9261 C.3     1  UNL1        0.2305
     11 C         -60.9454  -43.0765  -23.0411 C.3     1  UNL1        0.2223
     12 O         -61.9173  -42.0342  -23.2026 O.3     1  UNL1       -0.4715
     13 C         -63.1640  -42.0322  -22.5592 C.ar    1  UNL1        0.1477
     14 C         -64.1146  -41.0779  -22.9233 C.ar    1  UNL1        0.0741
     15 C         -65.3813  -41.0733  -22.3361 C.ar    1  UNL1        0.1448
     16 C         -65.6932  -42.0405  -21.3630 C.ar    1  UNL1        0.0741
     17 C         -64.7394  -43.0018  -20.9705 C.ar    1  UNL1        0.1475
     18 C         -63.4622  -42.9898  -21.5728 C.ar    1  UNL1        0.1052
     19 C         -62.3912  -43.9406  -21.1949 C.2     1  UNL1        0.2095
     20 O         -62.6379  -44.9618  -20.4983 O.2     1  UNL1       -0.2884
     21 C         -60.9764  -43.6521  -21.6064 C.3     1  UNL1        0.2169
     22 O         -60.4351  -42.7212  -20.7066 O.3     1  UNL1       -0.3739
     23 H         -59.4483  -42.7630  -20.8089 H       1  UNL1        0.2110
     24 O         -66.2995  -40.0955  -22.7481 O.3     1  UNL1       -0.4712
     25 C         -67.3981  -39.6399  -21.9651 C.3     1  UNL1        0.2525
     26 O         -65.0283  -43.9635  -19.9873 O.3     1  UNL1       -0.4711
     27 C         -65.4107  -43.6674  -18.6480 C.3     1  UNL1        0.2525
     28 C         -63.0976  -45.1402  -29.1370 C.ar    1  UNL1        0.0241
     29 C         -63.9942  -44.7057  -30.1252 C.ar    1  UNL1        0.0026
     30 C         -63.5325  -44.0506  -31.2678 C.ar    1  UNL1        0.0398
     31 C         -62.1563  -43.8254  -31.4532 C.ar    1  UNL1        0.1724
     32 C         -61.2463  -44.2687  -30.4824 C.ar    1  UNL1        0.1722
     33 C         -61.7202  -44.9292  -29.3328 C.ar    1  UNL1        0.0393
     34 O         -61.6548  -43.1687  -32.5882 O.3     1  UNL1       -0.4684
     35 C         -62.2541  -43.2177  -33.8790 C.3     1  UNL1        0.2526
     36 O         -59.8775  -44.0365  -30.6954 O.3     1  UNL1       -0.4684
     37 C         -59.0200  -44.8909  -31.4470 C.3     1  UNL1        0.2526
     38 C         -63.7343  -48.2046  -26.8772 C.3     1  UNL1        0.1897
     39 C         -63.7072  -49.3502  -24.8571 C.3     1  UNL1        0.1743
     40 O         -62.9179  -48.8334  -25.9059 O.3     1  UNL1       -0.3471
@<TRIPOS>BOND
     1    39    40    1
     2    40    38    1
     3    38     1    1
     4     1     2    1
     5     2     3    1
     6     3     4   ar
     7     4     5   ar
     8     5     6   ar
     9     6    11    1
    10    11    12    1
    11    12    13    1
    12    13    14   ar
    13    14    15   ar
    14    15    24    1
    15    24    25    1
    16    15    16   ar
    17    16    17   ar
    18    17    26    1
    19    26    27    1
    20    17    18   ar
    21    18    19    1
    22    19    20    2
    23    19    21    1
    24    21    22    1
    25     6     7   ar
    26     7     8   ar
    27     8     9    1
    28     9    10    1
    29    10    28    1
    30    28    29   ar
    31    29    30   ar
    32    30    31   ar
    33    31    34    1
    34    34    35    1
    35    31    32   ar
    36    32    36    1
    37    36    37    1
    38    32    33   ar
    39    10     1    1
    40    33    28   ar
    41     8     3   ar
    42    21    11    1
    43    18    13   ar
    44    22    23    1
@<TRIPOS>MOLECULE
*****
 40 44 0 0 0
SMALL
GASTEIGER

@<TRIPOS>ATOM
      1 C         -60.8923  -47.5513  -22.9219 C.3     1  UNL1        0.2392
      2 O         -61.9933  -47.3012  -23.8024 O.3     1  UNL1       -0.4694
      3 C         -61.7943  -46.9408  -25.1377 C.ar    1  UNL1        0.1723
      4 C         -62.8503  -46.9726  -26.0488 C.ar    1  UNL1        0.0398
      5 C         -62.6358  -46.6028  -27.3802 C.ar    1  UNL1        0.0026
      6 C         -61.3532  -46.2094  -27.8165 C.ar    1  UNL1        0.0233
      7 C         -60.3000  -46.1746  -26.8835 C.ar    1  UNL1        0.0393
      8 C         -60.5251  -46.5226  -25.5499 C.ar    1  UNL1        0.1725
      9 O         -59.4990  -46.4155  -24.6041 O.3     1  UNL1       -0.4679
     10 C         -59.7388  -46.5484  -23.1951 C.3     1  UNL1        0.2305
     11 C         -61.0919  -45.7338  -29.2351 C.3     1  UNL1        0.2223
     12 O         -62.3008  -45.3328  -29.8947 O.3     1  UNL1       -0.4715
     13 C         -62.7993  -44.0217  -29.8667 C.ar    1  UNL1        0.1477
     14 C         -64.0740  -43.7688  -30.3747 C.ar    1  UNL1        0.0741
     15 C         -64.6201  -42.4849  -30.3233 C.ar    1  UNL1        0.1448
     16 C         -63.8686  -41.4387  -29.7574 C.ar    1  UNL1        0.0741
     17 C         -62.5723  -41.6723  -29.2546 C.ar    1  UNL1        0.1475
     18 C         -62.0346  -42.9766  -29.3175 C.ar    1  UNL1        0.1052
     19 C         -60.6692  -43.3019  -28.8445 C.2     1  UNL1        0.2095
     20 O         -60.0100  -42.4915  -28.1390 O.2     1  UNL1       -0.2884
     21 C         -60.0402  -44.6008  -29.2587 C.3     1  UNL1        0.2169
     22 O         -59.5292  -44.4505  -30.5571 O.3     1  UNL1       -0.3739
     23 H         -58.8816  -45.1899  -30.6982 H       1  UNL1        0.2110
     24 O         -65.9099  -42.2918  -30.8413 O.3     1  UNL1       -0.4712
     25 C         -66.8476  -43.3364  -31.0803 C.3     1  UNL1        0.2525
     26 O         -61.8012  -40.6352  -28.7025 O.3     1  UNL1       -0.4711
     27 C         -61.2437  -39.5541  -29.4427 C.3     1  UNL1        0.2525
     28 C         -60.0262  -45.2011  -22.5544 C.ar    1  UNL1        0.0241
     29 C         -59.0565  -44.1892  -22.6249 C.ar    1  UNL1        0.0026
     30 C         -59.2727  -42.9519  -22.0165 C.ar    1  UNL1        0.0398
     31 C         -60.4639  -42.7029  -21.3110 C.ar    1  UNL1        0.1724
     32 C         -61.4354  -43.7101  -21.2174 C.ar    1  UNL1        0.1722
     33 C         -61.2094  -44.9558  -21.8336 C.ar    1  UNL1        0.0393
     34 O         -60.7174  -41.4707  -20.6877 O.3     1  UNL1       -0.4684
     35 C         -61.5099  -40.4301  -21.2505 C.3     1  UNL1        0.2526
     36 O         -62.6128  -43.4373  -20.5017 O.3     1  UNL1       -0.4684
     37 C         -63.7449  -44.3007  -20.4482 C.3     1  UNL1        0.2526
     38 C         -60.4149  -49.0031  -23.0996 C.3     1  UNL1        0.1897
     39 C         -61.4451  -51.0427  -22.6840 C.3     1  UNL1        0.1743
     40 O         -60.9904  -49.8368  -22.1102 O.3     1  UNL1       -0.3471
@<TRIPOS>BOND
     1    39    40    1
     2    40    38    1
     3    38     1    1
     4     1     2    1
     5     2     3    1
     6     3     4   ar
     7     4     5   ar
     8     5     6   ar
     9     6    11    1
    10    11    12    1
    11    12    13    1
    12    13    14   ar
    13    14    15   ar
    14    15    24    1
    15    24    25    1
    16    15    16   ar
    17    16    17   ar
    18    17    26    1
    19    26    27    1
    20    17    18   ar
    21    18    19    1
    22    19    20    2
    23    19    21    1
    24    21    22    1
    25     6     7   ar
    26     7     8   ar
    27     8     9    1
    28     9    10    1
    29    10    28    1
    30    28    29   ar
    31    29    30   ar
    32    30    31   ar
    33    31    34    1
    34    34    35    1
    35    31    32   ar
    36    32    36    1
    37    36    37    1
    38    32    33   ar
    39    10     1    1
    40    33    28   ar
    41     8     3   ar
    42    21    11    1
    43    18    13   ar
    44    22    23    1
@<TRIPOS>MOLECULE
*****
 40 44 0 0 0
SMALL
GASTEIGER

@<TRIPOS>ATOM
      1 C         -62.4262  -42.8589  -28.6721 C.3     1  UNL1        0.2392
      2 O         -63.2783  -42.5142  -27.5742 O.3     1  UNL1       -0.4694
      3 C         -62.7730  -42.3417  -26.2828 C.ar    1  UNL1        0.1723
      4 C         -63.5471  -41.7412  -25.2896 C.ar    1  UNL1        0.0398
      5 C         -63.0289  -41.5817  -24.0007 C.ar    1  UNL1        0.0026
      6 C         -61.7201  -42.0113  -23.6968 C.ar    1  UNL1        0.0233
      7 C         -60.9546  -42.6227  -24.7074 C.ar    1  UNL1        0.0393
      8 C         -61.4856  -42.8005  -25.9867 C.ar    1  UNL1        0.1725
      9 O         -60.7563  -43.4764  -26.9717 O.3     1  UNL1       -0.4679
     10 C         -61.3414  -43.8740  -28.2207 C.3     1  UNL1        0.2305
     11 C         -61.1442  -41.9209  -22.2942 C.3     1  UNL1        0.2223
     12 O         -61.6060  -40.7527  -21.6020 O.3     1  UNL1       -0.4715
     13 C         -62.7609  -40.7311  -20.8057 C.ar    1  UNL1        0.1477
     14 C         -63.2338  -39.5083  -20.3283 C.ar    1  UNL1        0.0741
     15 C         -64.4044  -39.4435  -19.5702 C.ar    1  UNL1        0.1448
     16 C         -65.1059  -40.6289  -19.2833 C.ar    1  UNL1        0.0741
     17 C         -64.6337  -41.8753  -19.7431 C.ar    1  UNL1        0.1475
     18 C         -63.4463  -41.9223  -20.5061 C.ar    1  UNL1        0.1052
     19 C         -62.8623  -43.1913  -20.9984 C.2     1  UNL1        0.2095
     20 O         -63.5192  -44.2670  -20.9753 O.2     1  UNL1       -0.2884
     21 C         -61.4421  -43.2043  -21.4851 C.3     1  UNL1        0.2169
     22 O         -60.5930  -43.2736  -20.3699 O.3     1  UNL1       -0.3739
     23 H         -59.7055  -43.5698  -20.7026 H       1  UNL1        0.2110
     24 O         -64.8370  -38.1852  -19.1246 O.3     1  UNL1       -0.4712
     25 C         -64.0539  -36.9971  -19.1799 C.3     1  UNL1        0.2525
     26 O         -65.3122  -43.0707  -19.4504 O.3     1  UNL1       -0.4711
     27 C         -65.5939  -43.5452  -18.1378 C.3     1  UNL1        0.2525
     28 C         -61.9118  -45.2799  -28.1405 C.ar    1  UNL1        0.0241
     29 C         -63.0180  -45.6158  -28.9358 C.ar    1  UNL1        0.0026
     30 C         -63.5896  -46.8869  -28.8608 C.ar    1  UNL1        0.0398
     31 C         -63.0719  -47.8501  -27.9758 C.ar    1  UNL1        0.1724
     32 C         -61.9771  -47.5239  -27.1623 C.ar    1  UNL1        0.1722
     33 C         -61.4065  -46.2392  -27.2437 C.ar    1  UNL1        0.0393
     34 O         -63.6190  -49.1391  -27.8739 O.3     1  UNL1       -0.4684
     35 C         -64.3716  -49.7792  -28.8993 C.3     1  UNL1        0.2526
     36 O         -61.4841  -48.5021  -26.2831 O.3     1  UNL1       -0.4684
     37 C         -61.7789  -48.5598  -24.8903 C.3     1  UNL1        0.2526
     38 C         -61.7842  -41.5820  -29.2417 C.3     1  UNL1        0.1897
     39 C         -62.6486  -42.3988  -31.2366 C.3     1  UNL1        0.1743
     40 O         -62.3808  -41.2391  -30.4794 O.3     1  UNL1       -0.3471
@<TRIPOS>BOND
     1    39    40    1
     2    40    38    1
     3    38     1    1
     4     1     2    1
     5     2     3    1
     6     3     4   ar
     7     4     5   ar
     8     5     6   ar
     9     6    11    1
    10    11    12    1
    11    12    13    1
    12    13    14   ar
    13    14    15   ar
    14    15    24    1
    15    24    25    1
    16    15    16   ar
    17    16    17   ar
    18    17    26    1
    19    26    27    1
    20    17    18   ar
    21    18    19    1
    22    19    20    2
    23    19    21    1
    24    21    22    1
    25     6     7   ar
    26     7     8   ar
    27     8     9    1
    28     9    10    1
    29    10    28    1
    30    28    29   ar
    31    29    30   ar
    32    30    31   ar
    33    31    34    1
    34    34    35    1
    35    31    32   ar
    36    32    36    1
    37    36    37    1
    38    32    33   ar
    39    10     1    1
    40    33    28   ar
    41     8     3   ar
    42    21    11    1
    43    18    13   ar
    44    22    23    1
@<TRIPOS>MOLECULE
*****
 40 44 0 0 0
SMALL
GASTEIGER

@<TRIPOS>ATOM
      1 C         -62.8676  -47.1918  -27.5630 C.3     1  UNL1        0.2392
      2 O         -61.5926  -46.9969  -26.9413 O.3     1  UNL1       -0.4694
      3 C         -61.4156  -46.0690  -25.9116 C.ar    1  UNL1        0.1723
      4 C         -60.2588  -46.0826  -25.1319 C.ar    1  UNL1        0.0398
      5 C         -60.0943  -45.1431  -24.1093 C.ar    1  UNL1        0.0026
      6 C         -61.0971  -44.1860  -23.8481 C.ar    1  UNL1        0.0233
      7 C         -62.2546  -44.1798  -24.6487 C.ar    1  UNL1        0.0393
      8 C         -62.4034  -45.1057  -25.6836 C.ar    1  UNL1        0.1725
      9 O         -63.5169  -45.0535  -26.5299 O.3     1  UNL1       -0.4679
     10 C         -63.6039  -45.8350  -27.7307 C.3     1  UNL1        0.2305
     11 C         -60.9287  -43.1049  -22.7945 C.3     1  UNL1        0.2223
     12 O         -61.8590  -42.0292  -22.9803 O.3     1  UNL1       -0.4715
     13 C         -63.1286  -41.9924  -22.3845 C.ar    1  UNL1        0.1477
     14 C         -64.0326  -41.0032  -22.7731 C.ar    1  UNL1        0.0741
     15 C         -65.3200  -40.9625  -22.2341 C.ar    1  UNL1        0.1448
     16 C         -65.7004  -41.9289  -21.2850 C.ar    1  UNL1        0.0741
     17 C         -64.7945  -42.9256  -20.8681 C.ar    1  UNL1        0.1475
     18 C         -63.4955  -42.9498  -21.4215 C.ar    1  UNL1        0.1052
     19 C         -62.4716  -43.9397  -21.0146 C.2     1  UNL1        0.2095
     20 O         -62.7782  -44.9594  -20.3399 O.2     1  UNL1       -0.2884
     21 C         -61.0334  -43.6942  -21.3689 C.3     1  UNL1        0.2169
     22 O         -60.4965  -42.7914  -20.4383 O.3     1  UNL1       -0.3739
     23 H         -59.5084  -42.8650  -20.5038 H       1  UNL1        0.2110
     24 O         -66.1892  -39.9503  -22.6691 O.3     1  UNL1       -0.4712
     25 C         -67.4385  -39.6429  -22.0588 C.3     1  UNL1        0.2525
     26 O         -65.1522  -43.8874  -19.9079 O.3     1  UNL1       -0.4711
     27 C         -65.4615  -43.6022  -18.5476 C.3     1  UNL1        0.2525
     28 C         -63.0671  -45.0692  -28.9280 C.ar    1  UNL1        0.0241
     29 C         -61.8257  -45.4326  -29.4721 C.ar    1  UNL1        0.0026
     30 C         -61.2861  -44.7277  -30.5490 C.ar    1  UNL1        0.0398
     31 C         -61.9742  -43.6315  -31.1001 C.ar    1  UNL1        0.1724
     32 C         -63.2081  -43.2457  -30.5564 C.ar    1  UNL1        0.1722
     33 C         -63.7454  -43.9618  -29.4696 C.ar    1  UNL1        0.0393
     34 O         -61.4640  -42.8996  -32.1841 O.3     1  UNL1       -0.4684
     35 C         -60.6805  -43.4555  -33.2352 C.3     1  UNL1        0.2526
     36 O         -63.8710  -42.1438  -31.1214 O.3     1  UNL1       -0.4684
     37 C         -64.6335  -41.1932  -30.3831 C.3     1  UNL1        0.2526
     38 C         -63.7026  -48.1723  -26.7212 C.3     1  UNL1        0.1897
     39 C         -63.6801  -49.5065  -24.8203 C.3     1  UNL1        0.1743
     40 O         -62.8859  -48.8193  -25.7621 O.3     1  UNL1       -0.3471
@<TRIPOS>BOND
     1    39    40    1
     2    40    38    1
     3    38     1    1
     4     1     2    1
     5     2     3    1
     6     3     4   ar
     7     4     5   ar
     8     5     6   ar
     9     6    11    1
    10    11    12    1
    11    12    13    1
    12    13    14   ar
    13    14    15   ar
    14    15    24    1
    15    24    25    1
    16    15    16   ar
    17    16    17   ar
    18    17    26    1
    19    26    27    1
    20    17    18   ar
    21    18    19    1
    22    19    20    2
    23    19    21    1
    24    21    22    1
    25     6     7   ar
    26     7     8   ar
    27     8     9    1
    28     9    10    1
    29    10    28    1
    30    28    29   ar
    31    29    30   ar
    32    30    31   ar
    33    31    34    1
    34    34    35    1
    35    31    32   ar
    36    32    36    1
    37    36    37    1
    38    32    33   ar
    39    10     1    1
    40    33    28   ar
    41     8     3   ar
    42    21    11    1
    43    18    13   ar
    44    22    23    1
@<TRIPOS>MOLECULE
*****
 40 44 0 0 0
SMALL
GASTEIGER

@<TRIPOS>ATOM
      1 C         -61.1513  -47.2948  -25.5374 C.3     1  UNL1        0.2392
      2 O         -60.1190  -46.7074  -24.7376 O.3     1  UNL1       -0.4694
      3 C         -60.3177  -45.5035  -24.0566 C.ar    1  UNL1        0.1723
      4 C         -59.4225  -45.0868  -23.0711 C.ar    1  UNL1        0.0398
      5 C         -59.6323  -43.8763  -22.4032 C.ar    1  UNL1        0.0026
      6 C         -60.7527  -43.0751  -22.7078 C.ar    1  UNL1        0.0233
      7 C         -61.6422  -43.5051  -23.7102 C.ar    1  UNL1        0.0393
      8 C         -61.4152  -44.7037  -24.3902 C.ar    1  UNL1        0.1725
      9 O         -62.2544  -45.0960  -25.4393 O.3     1  UNL1       -0.4679
     10 C         -61.9363  -46.1964  -26.3043 C.3     1  UNL1        0.2305
     11 C         -60.9804  -41.7218  -22.0570 C.3     1  UNL1        0.2223
     12 O         -61.9972  -40.9690  -22.7327 O.3     1  UNL1       -0.4715
     13 C         -63.3571  -41.0262  -22.3926 C.ar    1  UNL1        0.1477
     14 C         -64.2917  -40.4082  -23.2242 C.ar    1  UNL1        0.0741
     15 C         -65.6568  -40.4822  -22.9411 C.ar    1  UNL1        0.1448
     16 C         -66.0868  -41.1838  -21.7998 C.ar    1  UNL1        0.0741
     17 C         -65.1555  -41.7999  -20.9391 C.ar    1  UNL1        0.1475
     18 C         -63.7784  -41.7124  -21.2392 C.ar    1  UNL1        0.1052
     19 C         -62.7322  -42.3004  -20.3712 C.2     1  UNL1        0.2095
     20 O         -63.0232  -43.1169  -19.4559 O.2     1  UNL1       -0.2884
     21 C         -61.3042  -41.8736  -20.5528 C.3     1  UNL1        0.2169
     22 O         -61.1232  -40.6451  -19.8990 O.3     1  UNL1       -0.3739
     23 H         -60.1448  -40.5254  -19.7783 H       1  UNL1        0.2110
     24 O         -66.5510  -39.8492  -23.8179 O.3     1  UNL1       -0.4712
     25 C         -66.6176  -40.0960  -25.2188 C.3     1  UNL1        0.2525
     26 O         -65.5666  -42.4892  -19.7854 O.3     1  UNL1       -0.4711
     27 C         -65.8638  -41.8764  -18.5349 C.3     1  UNL1        0.2525
     28 C         -61.1658  -45.7316  -27.5285 C.ar    1  UNL1        0.0241
     29 C         -60.1552  -46.5518  -28.0530 C.ar    1  UNL1        0.0026
     30 C         -59.4035  -46.1400  -29.1545 C.ar    1  UNL1        0.0398
     31 C         -59.6396  -44.8880  -29.7507 C.ar    1  UNL1        0.1724
     32 C         -60.6350  -44.0498  -29.2275 C.ar    1  UNL1        0.1722
     33 C         -61.3886  -44.4725  -28.1157 C.ar    1  UNL1        0.0393
     34 O         -58.9053  -44.4405  -30.8604 O.3     1  UNL1       -0.4684
     35 C         -59.3459  -44.5364  -32.2111 C.3     1  UNL1        0.2526
     36 O         -60.8457  -42.8024  -29.8378 O.3     1  UNL1       -0.4684
     37 C         -62.1230  -42.1995  -30.0252 C.3     1  UNL1        0.2526
     38 C         -62.0898  -48.1172  -24.6375 C.3     1  UNL1        0.1897
     39 C         -64.1416  -49.1322  -25.0305 C.3     1  UNL1        0.1743
     40 O         -63.4399  -47.9084  -25.0104 O.3     1  UNL1       -0.3471
@<TRIPOS>BOND
     1    39    40    1
     2    40    38    1
     3    38     1    1
     4     1     2    1
     5     2     3    1
     6     3     4   ar
     7     4     5   ar
     8     5     6   ar
     9     6    11    1
    10    11    12    1
    11    12    13    1
    12    13    14   ar
    13    14    15   ar
    14    15    24    1
    15    24    25    1
    16    15    16   ar
    17    16    17   ar
    18    17    26    1
    19    26    27    1
    20    17    18   ar
    21    18    19    1
    22    19    20    2
    23    19    21    1
    24    21    22    1
    25     6     7   ar
    26     7     8   ar
    27     8     9    1
    28     9    10    1
    29    10    28    1
    30    28    29   ar
    31    29    30   ar
    32    30    31   ar
    33    31    34    1
    34    34    35    1
    35    31    32   ar
    36    32    36    1
    37    36    37    1
    38    32    33   ar
    39    10     1    1
    40    33    28   ar
    41     8     3   ar
    42    21    11    1
    43    18    13   ar
    44    22    23    1
@<TRIPOS>MOLECULE
*****
 40 44 0 0 0
SMALL
GASTEIGER

@<TRIPOS>ATOM
      1 C         -62.4596  -42.4041  -28.7991 C.3     1  UNL1        0.2392
      2 O         -63.2089  -42.2104  -27.5944 O.3     1  UNL1       -0.4694
      3 C         -62.6297  -42.3926  -26.3359 C.ar    1  UNL1        0.1723
      4 C         -63.2718  -41.9379  -25.1839 C.ar    1  UNL1        0.0398
      5 C         -62.6815  -42.1336  -23.9314 C.ar    1  UNL1        0.0026
      6 C         -61.4310  -42.7771  -23.8218 C.ar    1  UNL1        0.0233
      7 C         -60.7996  -43.2375  -24.9924 C.ar    1  UNL1        0.0393
      8 C         -61.4045  -43.0599  -26.2386 C.ar    1  UNL1        0.1725
      9 O         -60.8167  -43.5840  -27.3956 O.3     1  UNL1       -0.4679
     10 C         -61.5036  -43.6191  -28.6555 C.3     1  UNL1        0.2305
     11 C         -60.7880  -43.0720  -22.4777 C.3     1  UNL1        0.2223
     12 O         -60.9139  -41.9671  -21.5720 O.3     1  UNL1       -0.4715
     13 C         -61.9902  -41.8118  -20.6855 C.ar    1  UNL1        0.1477
     14 C         -62.1228  -40.6145  -19.9815 C.ar    1  UNL1        0.0741
     15 C         -63.2054  -40.4076  -19.1244 C.ar    1  UNL1        0.1448
     16 C         -64.1655  -41.4244  -18.9693 C.ar    1  UNL1        0.0741
     17 C         -64.0385  -42.6471  -19.6597 C.ar    1  UNL1        0.1475
     18 C         -62.9356  -42.8402  -20.5202 C.ar    1  UNL1        0.1052
     19 C         -62.7076  -44.1054  -21.2558 C.2     1  UNL1        0.2095
     20 O         -63.6091  -44.9818  -21.3466 O.2     1  UNL1       -0.2884
     21 C         -61.3583  -44.3693  -21.8593 C.3     1  UNL1        0.2169
     22 O         -60.5037  -44.8314  -20.8466 O.3     1  UNL1       -0.3739
     23 H         -59.7334  -45.2667  -21.2974 H       1  UNL1        0.2110
     24 O         -63.2917  -39.1803  -18.4496 O.3     1  UNL1       -0.4712
     25 C         -64.1130  -38.0913  -18.8583 C.3     1  UNL1        0.2525
     26 O         -64.9786  -43.6799  -19.5024 O.3     1  UNL1       -0.4711
     27 C         -65.5082  -44.1139  -18.2540 C.3     1  UNL1        0.2525
     28 C         -62.2549  -44.9270  -28.8384 C.ar    1  UNL1        0.0241
     29 C         -61.8517  -46.0555  -28.1084 C.ar    1  UNL1        0.0026
     30 C         -62.4964  -47.2817  -28.2786 C.ar    1  UNL1        0.0398
     31 C         -63.5555  -47.4089  -29.1957 C.ar    1  UNL1        0.1724
     32 C         -63.9589  -46.2940  -29.9449 C.ar    1  UNL1        0.1722
     33 C         -63.3030  -45.0608  -29.7676 C.ar    1  UNL1        0.0393
     34 O         -64.2287  -48.6250  -29.3928 O.3     1  UNL1       -0.4684
     35 C         -64.1992  -49.7199  -28.4829 C.3     1  UNL1        0.2526
     36 O         -65.0146  -46.4502  -30.8581 O.3     1  UNL1       -0.4684
     37 C         -65.4020  -45.4740  -31.8208 C.3     1  UNL1        0.2526
     38 C         -61.6760  -41.1210  -29.1257 C.3     1  UNL1        0.1897
     39 C         -63.6668  -40.8636  -30.2938 C.3     1  UNL1        0.1743
     40 O         -62.4826  -40.2254  -29.8691 O.3     1  UNL1       -0.3471
@<TRIPOS>BOND
     1    39    40    1
     2    40    38    1
     3    38     1    1
     4     1     2    1
     5     2     3    1
     6     3     4   ar
     7     4     5   ar
     8     5     6   ar
     9     6    11    1
    10    11    12    1
    11    12    13    1
    12    13    14   ar
    13    14    15   ar
    14    15    24    1
    15    24    25    1
    16    15    16   ar
    17    16    17   ar
    18    17    26    1
    19    26    27    1
    20    17    18   ar
    21    18    19    1
    22    19    20    2
    23    19    21    1
    24    21    22    1
    25     6     7   ar
    26     7     8   ar
    27     8     9    1
    28     9    10    1
    29    10    28    1
    30    28    29   ar
    31    29    30   ar
    32    30    31   ar
    33    31    34    1
    34    34    35    1
    35    31    32   ar
    36    32    36    1
    37    36    37    1
    38    32    33   ar
    39    10     1    1
    40    33    28   ar
    41     8     3   ar
    42    21    11    1
    43    18    13   ar
    44    22    23    1
